<?xml version="1.0" encoding="UTF-8"?>

<!-- generated on 2024-02-12 14:46:05 by Eclipse SUMO netconvert Version 1.19.0
-->

<configuration xmlns:xsi="http://www.w3.org/2001/XMLSchema-instance" xsi:noNamespaceSchemaLocation="http://sumo.dlr.de/xsd/netconvertConfiguration.xsd">

    <configuration>
        <save-configuration value="" synonymes="C save-config" type="FILE" help="Saves current configuration into FILE"/>

    </configuration>

    <input>
        <osm-files value="map_1.osm,map_2.osm,map_3.osm,map_4.osm,map_5.osm,map_6.osm,map_7.osm,map_8.osm" synonymes="osm" type="FILE" help="Read OSM-network from path &apos;FILE(s)&apos;"/>
    </input>

    <output>
        <output-prefix value="base_TIME_" type="STR" help="Prefix which is applied to all output files. The special string &apos;TIME&apos; is replaced by the current time."/>
    </output>

    <projection></projection>

    <processing>
        <geometry.remove value="true" synonymes="R remove-geometry" type="BOOL" help="Replace nodes which only define edge geometry by geometry points (joins edges)"/>
    </processing>

    <building_defaults>
        <default.lanewidth value="0.1" synonymes="lanewidth" type="FLOAT" help="The default width of lanes"/>
    </building_defaults>

    <tls_building>
    </tls_building>

    <ramp_guessing>
        <ramps.guess value="true" synonymes="guess-ramps" type="BOOL" help="Enable ramp-guessing"/>
      </ramp_guessing>

    <edge_removal></edge_removal>
    <unregulated_nodes></unregulated_nodes>

    <junctions>      
        <junctions.join value="true" type="BOOL" help="Joins junctions that are close to each other (recommended for OSM import)"/>       
    </junctions>

    <pedestrian></pedestrian>
    <bicycle></bicycle>
    <railway></railway>
    <formats></formats>
    <report></report>

    <random_number>
        <random value="false" synonymes="abs-rand" type="BOOL" help="Initialises the random number generator with the current system time"/>
        <seed value="42" synonymes="srand" type="INT" help="Initialises the random number generator with the given value"/>
    </random_number>

</configuration>
