<?xml version="1.0" encoding="UTF-8"?>

<!-- generated on 2024-02-12 14:46:05 by Eclipse SUMO netconvert Version 1.19.0
-->

<configuration xmlns:xsi="http://www.w3.org/2001/XMLSchema-instance" xsi:noNamespaceSchemaLocation="http://sumo.dlr.de/xsd/netconvertConfiguration.xsd">

    <configuration>
        <save-configuration value="" synonymes="C save-config" type="FILE" help="Saves current configuration into FILE"/>

    </configuration>

    <input>
        <sumo-net-file value="base.net.xml" synonymes="net-file s sumo-net" type="FILE" help="Read SUMO-net from FILE"/>
    </input>

    <output>
        <output-prefix value="edit_highway_TIME_" type="STR" help="Prefix which is applied to all output files. The special string &apos;TIME&apos; is replaced by the current time."/>
        <output.street-names value="true"/>
        <output.original-names value="true"/>
    </output>

    <projection></projection>

    <processing></processing>

    <building_defaults></building_defaults>

    <tls_building></tls_building>

    <ramp_guessing></ramp_guessing>

    <edge_removal></edge_removal>
        <keep-edges.by-type value="highway.primary,highway.primary_link,highway.secondary,highway.secondary_link,highway.motorway,highway.motorway_link"/>
        <remove-edges.isolated value="true"/>
        <keep-edges.components value="1"/>

    <unregulated_nodes></unregulated_nodes>

    <junctions></junctions>

    <pedestrian></pedestrian>
    <bicycle></bicycle>
    <railway></railway>
    <formats></formats>
    <report></report>

    <random_number>
        <random value="false" synonymes="abs-rand" type="BOOL" help="Initialises the random number generator with the current system time"/>
        <seed value="42" synonymes="srand" type="INT" help="Initialises the random number generator with the given value"/>
    </random_number>

</configuration>
