<?xml version="1.0" encoding="UTF-8"?>

<!-- generated on 2024-02-12 14:46:05 by Eclipse SUMO netconvert Version 1.19.0
-->

<configuration xmlns:xsi="http://www.w3.org/2001/XMLSchema-instance" xsi:noNamespaceSchemaLocation="http://sumo.dlr.de/xsd/netconvertConfiguration.xsd">

    <configuration></configuration>
    <input></input>
    <output></output>
    <projection></projection>
    <processing></processing>
    <building_defaults></building_defaults>
    <tls_building>
    </tls_building>
    <ramp_guessing></ramp_guessing>
    <edge_removal></edge_removal>
    <unregulated_nodes></unregulated_nodes>
    <junctions></junctions>
    <pedestrian></pedestrian>
    <bicycle></bicycle>
    <railway></railway>
    <formats></formats>
    <report></report>
    <random_number>
    </random_number>

</configuration>
