<additional xmlns:xsi="http://www.w3.org/2001/XMLSchema-instance" xsi:noNamespaceSchemaLocation="http://sumo.dlr.de/xsd/additional_file.xsd">
	<calibrator id="ca_597084091_0" lane="597084091_0" pos="91.38" output="ca_597084091_0"/>
	<calibrator id="ca_597084091_1" lane="597084091_1" pos="91.38" output="ca_597084091_1"/>
	<calibrator id="ca_597084091_2" lane="597084091_2" pos="91.38" output="ca_597084091_2"/>
	<calibrator id="ca_12543217_0" lane="12543217_0" pos="50.59" output="ca_12543217_0"/>
	<calibrator id="ca_13798242_0" lane="13798242_0" pos="119.32" output="ca_13798242_0"/>
	<calibrator id="ca_95984899_0" lane="95984899_0" pos="0.0" output="ca_95984899_0"/>
	<calibrator id="ca_13860802_0" lane="13860802_0" pos="0.0" output="ca_13860802_0"/>
	<calibrator id="ca_480083543_0" lane="480083543_0" pos="10.24" output="ca_480083543_0"/>
	<calibrator id="ca_118670828#1_0" lane="118670828#1_0" pos="0.0" output="ca_118670828#1_0"/>
	<calibrator id="ca_54509443_0" lane="54509443_0" pos="105.75" output="ca_54509443_0"/>
	<calibrator id="ca_173072184_0" lane="173072184_0" pos="0.0" output="ca_173072184_0"/>
	<calibrator id="ca_1177120141_0" lane="1177120141_0" pos="36.15" output="ca_1177120141_0"/>
	<calibrator id="ca_99185139_0" lane="99185139_0" pos="81.8" output="ca_99185139_0"/>
	<calibrator id="ca_474423823_0" lane="474423823_0" pos="0.0" output="ca_474423823_0"/>
	<calibrator id="ca_474423823_1" lane="474423823_1" pos="0.0" output="ca_474423823_1"/>
	<calibrator id="ca_1167578689_0" lane="1167578689_0" pos="0.0" output="ca_1167578689_0"/>
	<calibrator id="ca_4256485_0" lane="4256485_0" pos="205.08" output="ca_4256485_0"/>
	<calibrator id="ca_1165239238_1" lane="1165239238_1" pos="0.0" output="ca_1165239238_1"/>
	<calibrator id="ca_1165239238_0" lane="1165239238_0" pos="0.0" output="ca_1165239238_0"/>
	<calibrator id="ca_12543642_0" lane="12543642_0" pos="0.0" output="ca_12543642_0"/>
	<calibrator id="ca_139465323_0" lane="139465323_0" pos="155.92" output="ca_139465323_0"/>
	<calibrator id="ca_27292207#0_0" lane="27292207#0_0" pos="113.0" output="ca_27292207#0_0"/>
	<calibrator id="ca_99185171#1_0" lane="99185171#1_0" pos="0.0" output="ca_99185171#1_0"/>
	<calibrator id="ca_34712768#1_0" lane="34712768#1_0" pos="0.0" output="ca_34712768#1_0"/>
	<calibrator id="ca_4259341_0" lane="4259341_0" pos="57.13" output="ca_4259341_0"/>
	<calibrator id="ca_4259341_1" lane="4259341_1" pos="57.13" output="ca_4259341_1"/>
	<calibrator id="ca_12543749_0" lane="12543749_0" pos="0.0" output="ca_12543749_0"/>
	<calibrator id="ca_63202743#1_0" lane="63202743#1_0" pos="0.0" output="ca_63202743#1_0"/>
	<calibrator id="ca_480148036_0" lane="480148036_0" pos="40.75" output="ca_480148036_0"/>
	<calibrator id="ca_27293116#0_0" lane="27293116#0_0" pos="130.58" output="ca_27293116#0_0"/>
	<calibrator id="ca_99185260_0" lane="99185260_0" pos="114.92" output="ca_99185260_0"/>
	<calibrator id="ca_1174008830_0" lane="1174008830_0" pos="0.0" output="ca_1174008830_0"/>
	<calibrator id="ca_394028171_0" lane="394028171_0" pos="0.0" output="ca_394028171_0"/>
	<calibrator id="ca_1230014164_0" lane="1230014164_0" pos="32.26" output="ca_1230014164_0"/>
	<calibrator id="ca_485343201_0" lane="485343201_0" pos="779.18" output="ca_485343201_0"/>
	<calibrator id="ca_485343201_1" lane="485343201_1" pos="779.18" output="ca_485343201_1"/>
	<calibrator id="ca_95984936_0" lane="95984936_0" pos="195.76" output="ca_95984936_0"/>
	<calibrator id="ca_480083542_0" lane="480083542_0" pos="0.0" output="ca_480083542_0"/>
	<calibrator id="ca_1058622694_0" lane="1058622694_0" pos="0.0" output="ca_1058622694_0"/>
	<calibrator id="ca_1058622694_1" lane="1058622694_1" pos="0.0" output="ca_1058622694_1"/>
	<calibrator id="ca_1165499582_0" lane="1165499582_0" pos="0.0" output="ca_1165499582_0"/>
	<calibrator id="ca_35385034_0" lane="35385034_0" pos="0.0" output="ca_35385034_0"/>
	<calibrator id="ca_37856708#0_0" lane="37856708#0_0" pos="171.99" output="ca_37856708#0_0"/>
	<calibrator id="ca_386578590_0" lane="386578590_0" pos="153.03" output="ca_386578590_0"/>
	<calibrator id="ca_4259343_0" lane="4259343_0" pos="183.44" output="ca_4259343_0"/>
	<calibrator id="ca_95984945_0" lane="95984945_0" pos="171.15" output="ca_95984945_0"/>
	<calibrator id="ca_95841100_0" lane="95841100_0" pos="0.0" output="ca_95841100_0"/>
	<calibrator id="ca_480083544_0" lane="480083544_0" pos="79.81" output="ca_480083544_0"/>
	<calibrator id="ca_479198383_0" lane="479198383_0" pos="0.0" output="ca_479198383_0"/>
	<calibrator id="ca_1165499589_1" lane="1165499589_1" pos="0.0" output="ca_1165499589_1"/>
	<calibrator id="ca_1165499589_2" lane="1165499589_2" pos="0.0" output="ca_1165499589_2"/>
	<calibrator id="ca_1165499589_0" lane="1165499589_0" pos="0.0" output="ca_1165499589_0"/>
	<calibrator id="ca_13702954_0" lane="13702954_0" pos="199.24" output="ca_13702954_0"/>
	<calibrator id="ca_4259345_0" lane="4259345_0" pos="0.0" output="ca_4259345_0"/>
	<calibrator id="ca_4259345_1" lane="4259345_1" pos="0.0" output="ca_4259345_1"/>
	<calibrator id="ca_480084928_0" lane="480084928_0" pos="0.0" output="ca_480084928_0"/>
	<calibrator id="ca_839842702_0" lane="839842702_0" pos="1195.42" output="ca_839842702_0"/>
	<calibrator id="ca_839842702_1" lane="839842702_1" pos="1195.42" output="ca_839842702_1"/>
	<calibrator id="ca_95117793_0" lane="95117793_0" pos="161.3" output="ca_95117793_0"/>
	<calibrator id="ca_95117799_0" lane="95117799_0" pos="0.0" output="ca_95117799_0"/>
	<calibrator id="ca_479192134_0" lane="479192134_0" pos="220.31" output="ca_479192134_0"/>
	<calibrator id="ca_13712407_0" lane="13712407_0" pos="29.75" output="ca_13712407_0"/>
	<calibrator id="ca_63634695_0" lane="63634695_0" pos="0.0" output="ca_63634695_0"/>
	<calibrator id="ca_54375651#0_0" lane="54375651#0_0" pos="80.23" output="ca_54375651#0_0"/>
	<calibrator id="ca_1225499020_0" lane="1225499020_0" pos="57.33" output="ca_1225499020_0"/>
	<calibrator id="ca_479192137_0" lane="479192137_0" pos="11.66" output="ca_479192137_0"/>
	<calibrator id="ca_13713756_0" lane="13713756_0" pos="0.0" output="ca_13713756_0"/>
	<calibrator id="ca_835878391#1_0" lane="835878391#1_0" pos="0.0" output="ca_835878391#1_0"/>
	<calibrator id="ca_12389533_0" lane="12389533_0" pos="132.3" output="ca_12389533_0"/>
	<calibrator id="ca_97721366_0" lane="97721366_0" pos="0.0" output="ca_97721366_0"/>
	<calibrator id="ca_479127829_0" lane="479127829_0" pos="0.0" output="ca_479127829_0"/>
	<calibrator id="ca_63634696_0" lane="63634696_0" pos="141.74" output="ca_63634696_0"/>
	<calibrator id="ca_54375654_0" lane="54375654_0" pos="0.0" output="ca_54375654_0"/>
	<calibrator id="ca_1225499021_0" lane="1225499021_0" pos="0.0" output="ca_1225499021_0"/>
	<calibrator id="ca_258900077_0" lane="258900077_0" pos="87.72" output="ca_258900077_0"/>
	<calibrator id="ca_97721399_0" lane="97721399_0" pos="0.0" output="ca_97721399_0"/>
	<calibrator id="ca_12543140_0" lane="12543140_0" pos="0.0" output="ca_12543140_0"/>
	<calibrator id="ca_258900080#1_0" lane="258900080#1_0" pos="0.0" output="ca_258900080#1_0"/>
	<calibrator id="ca_258900080#1_1" lane="258900080#1_1" pos="0.0" output="ca_258900080#1_1"/>
	<calibrator id="ca_54379491_0" lane="54379491_0" pos="0.0" output="ca_54379491_0"/>
	<calibrator id="ca_12297710#0_0" lane="12297710#0_0" pos="62.7" output="ca_12297710#0_0"/>
	<calibrator id="ca_12297710#0_1" lane="12297710#0_1" pos="62.7" output="ca_12297710#0_1"/>
	<calibrator id="ca_13713844#0_0" lane="13713844#0_0" pos="37.63" output="ca_13713844#0_0"/>
	<calibrator id="ca_398030863_0" lane="398030863_0" pos="39.24" output="ca_398030863_0"/>
	<calibrator id="ca_54379553_0" lane="54379553_0" pos="75.05" output="ca_54379553_0"/>
	<calibrator id="ca_13713923#2_0" lane="13713923#2_0" pos="0.0" output="ca_13713923#2_0"/>
	<calibrator id="ca_484778540_0" lane="484778540_0" pos="148.29" output="ca_484778540_0"/>
	<calibrator id="ca_1174689800_0" lane="1174689800_0" pos="35.82" output="ca_1174689800_0"/>
	<calibrator id="ca_498604771_0" lane="498604771_0" pos="36.01" output="ca_498604771_0"/>
	<calibrator id="ca_1174689806_0" lane="1174689806_0" pos="42.29" output="ca_1174689806_0"/>
	<calibrator id="ca_12543151_0" lane="12543151_0" pos="280.14" output="ca_12543151_0"/>
	<calibrator id="ca_139455445_0" lane="139455445_0" pos="0.0" output="ca_139455445_0"/>
	<calibrator id="ca_480148049_0" lane="480148049_0" pos="0.0" output="ca_480148049_0"/>
	<calibrator id="ca_98835987_0" lane="98835987_0" pos="0.0" output="ca_98835987_0"/>
	<calibrator id="ca_4256484_0" lane="4256484_0" pos="0.0" output="ca_4256484_0"/>
	<calibrator id="ca_4256484_1" lane="4256484_1" pos="0.0" output="ca_4256484_1"/>
	<calibrator id="ca_29036536_0" lane="29036536_0" pos="306.6" output="ca_29036536_0"/>
	<calibrator id="ca_12543154_0" lane="12543154_0" pos="0.0" output="ca_12543154_0"/>
	<calibrator id="ca_12298305_0" lane="12298305_0" pos="694.52" output="ca_12298305_0"/>
	<calibrator id="ca_13798158_0" lane="13798158_0" pos="170.59" output="ca_13798158_0"/>
	<calibrator id="ca_1174689807_0" lane="1174689807_0" pos="0.0" output="ca_1174689807_0"/>
	<calibrator id="ca_158900210_0" lane="158900210_0" pos="0.0" output="ca_158900210_0"/>
	<calibrator id="ca_106586052_0" lane="106586052_0" pos="0.0" output="ca_106586052_0"/>
	<calibrator id="ca_99185124_0" lane="99185124_0" pos="0.0" output="ca_99185124_0"/>
	<calibrator id="ca_30911274#0_0" lane="30911274#0_0" pos="177.33" output="ca_30911274#0_0"/>
	<calibrator id="ca_1174008829_0" lane="1174008829_0" pos="0.0" output="ca_1174008829_0"/>
	<calibrator id="ca_1174008829_1" lane="1174008829_1" pos="0.0" output="ca_1174008829_1"/>
</additional>
