<?xml version="1.0" encoding="UTF-8"?>

<!-- generated on 2024-02-14 17:32:49 by Eclipse SUMO netconvert Version 1.19.0
<configuration xmlns:xsi="http://www.w3.org/2001/XMLSchema-instance" xsi:noNamespaceSchemaLocation="http://sumo.dlr.de/xsd/netconvertConfiguration.xsd">

    <input>
        <sumo-net-file value="networks/base.net.xml"/>
    </input>

    <output>
        <output-file value="networks/filter_by_edge_2024-02-14-17-32-34.net.xml"/>
        <output.street-names value="true"/>
        <output.original-names value="true"/>
    </output>

    <processing>
        <geometry.min-radius.fix.railways value="false"/>
        <geometry.max-grade.fix value="false"/>
        <offset.disable-normalization value="true"/>
        <lefthand value="0"/>
    </processing>

    <edge_removal>
        <keep-edges.input-file value="netconvert_configs\edges_2024-02-14-17-32-34.txt"/>
        <keep-edges.components value="1"/>
    </edge_removal>

    <junctions>
        <no-turnarounds value="true"/>
        <junctions.corner-detail value="5"/>
        <junctions.limit-turn-speed value="5.50"/>
        <rectangular-lane-cut value="0"/>
    </junctions>

    <pedestrian>
        <walkingareas value="0"/>
    </pedestrian>

    <random_number>
        <random value="false"/>
        <seed value="42"/>
    </random_number>

</configuration>
-->

<net version="1.16" junctionCornerDetail="5" limitTurnSpeed="5.50" xmlns:xsi="http://www.w3.org/2001/XMLSchema-instance" xsi:noNamespaceSchemaLocation="http://sumo.dlr.de/xsd/net_file.xsd">

    <location netOffset="-528770.47,-4550941.69" convBoundary="643.61,133.64,7013.67,7302.75" origBoundary="-8.675949,41.059699,-8.491512,41.238844" projParameter="+proj=utm +zone=29 +ellps=WGS84 +datum=WGS84 +units=m +no_defs"/>

    <type id="highway.motorway" priority="14" numLanes="2" speed="39.44" allow="private emergency authority army vip passenger hov taxi bus coach delivery truck trailer motorcycle evehicle custom1 custom2" oneway="1"/>
    <type id="highway.motorway_link" priority="9" numLanes="1" speed="22.22" allow="private emergency authority army vip passenger hov taxi bus coach delivery truck trailer motorcycle evehicle custom1 custom2" oneway="1"/>

    <edge id=":10019270299_0" function="internal">
        <lane id=":10019270299_0_0" index="0" allow="private emergency authority army vip passenger hov taxi bus coach delivery truck trailer motorcycle evehicle custom1 custom2" speed="25.00" length="0.30" shape="6693.99,2882.16 6693.80,2882.40"/>
        <lane id=":10019270299_0_1" index="1" allow="private emergency authority army vip passenger hov taxi bus coach delivery truck trailer motorcycle evehicle custom1 custom2" speed="25.00" length="0.30" shape="6691.50,2880.14 6691.31,2880.38"/>
    </edge>
    <edge id=":10838152692_0" function="internal">
        <lane id=":10838152692_0_0" index="0" allow="private emergency authority army vip passenger hov taxi bus coach delivery truck trailer motorcycle evehicle custom1 custom2" speed="22.22" length="8.21" shape="4564.41,1978.75 4566.68,1979.52 4568.35,1979.68 4570.03,1979.81 4572.33,1980.51"/>
        <lane id=":10838152692_0_1" index="1" allow="private emergency authority army vip passenger hov taxi bus coach delivery truck trailer motorcycle evehicle custom1 custom2" speed="22.22" length="8.21" shape="4563.07,1981.66 4565.36,1982.44 4567.05,1982.60 4568.75,1982.74 4571.08,1983.46"/>
    </edge>
    <edge id=":10838152693_0" function="internal">
        <lane id=":10838152693_0_0" index="0" allow="private emergency authority army vip passenger hov taxi bus coach delivery truck trailer motorcycle evehicle custom1 custom2" speed="22.22" length="8.26" shape="3891.09,1627.91 3893.50,1628.60 3895.36,1628.33 3897.23,1628.05 3899.64,1628.72"/>
        <lane id=":10838152693_0_1" index="1" allow="private emergency authority army vip passenger hov taxi bus coach delivery truck trailer motorcycle evehicle custom1 custom2" speed="22.22" length="8.26" shape="3891.09,1627.91 3898.19,1631.57"/>
        <lane id=":10838152693_0_2" index="2" allow="private emergency authority army vip passenger hov taxi bus coach delivery truck trailer motorcycle evehicle custom1 custom2" speed="22.22" length="8.26" shape="3889.61,1630.74 3896.74,1634.42"/>
    </edge>
    <edge id=":10838152694_0" function="internal">
        <lane id=":10838152694_0_0" index="0" allow="private emergency authority army vip passenger hov taxi bus coach delivery truck trailer motorcycle evehicle custom1 custom2" speed="22.22" length="7.99" shape="3883.16,1641.23 3876.08,1637.50"/>
        <lane id=":10838152694_0_1" index="1" allow="private emergency authority army vip passenger hov taxi bus coach delivery truck trailer motorcycle evehicle custom1 custom2" speed="22.22" length="7.99" shape="3884.65,1638.40 3877.58,1634.67"/>
    </edge>
    <edge id=":10840573818_0" function="internal">
        <lane id=":10840573818_0_0" index="0" allow="private emergency authority army vip passenger hov taxi bus coach delivery truck trailer motorcycle evehicle custom1 custom2" speed="39.44" length="7.97" shape="4986.21,2079.21 4978.22,2078.78"/>
        <lane id=":10840573818_0_1" index="1" allow="private emergency authority army vip passenger hov taxi bus coach delivery truck trailer motorcycle evehicle custom1 custom2" speed="39.44" length="7.97" shape="4986.35,2076.01 4978.42,2075.59"/>
    </edge>
    <edge id=":10840573819_0" function="internal">
        <lane id=":10840573819_0_0" index="0" allow="private emergency authority army vip passenger hov taxi bus coach delivery truck trailer motorcycle evehicle custom1 custom2" speed="22.22" length="7.99" shape="1479.58,3926.37 1478.04,3934.14"/>
        <lane id=":10840573819_0_1" index="1" allow="private emergency authority army vip passenger hov taxi bus coach delivery truck trailer motorcycle evehicle custom1 custom2" speed="22.22" length="7.99" shape="1476.45,3925.71 1474.89,3933.55"/>
        <lane id=":10840573819_0_2" index="2" allow="private emergency authority army vip passenger hov taxi bus coach delivery truck trailer motorcycle evehicle custom1 custom2" speed="22.22" length="7.99" shape="1473.32,3925.05 1471.75,3932.96"/>
    </edge>
    <edge id=":11028817791_0" function="internal">
        <lane id=":11028817791_0_0" index="0" allow="private emergency authority army vip passenger hov taxi bus coach delivery truck trailer motorcycle evehicle custom1 custom2" speed="22.22" length="8.16" shape="6226.95,5348.82 6227.66,5351.04 6228.52,5352.44 6229.41,5353.83 6230.21,5356.02"/>
        <lane id=":11028817791_0_1" index="1" allow="private emergency authority army vip passenger hov taxi bus coach delivery truck trailer motorcycle evehicle custom1 custom2" speed="22.22" length="8.16" shape="6223.81,5349.46 6224.53,5351.72 6225.40,5353.14 6226.29,5354.56 6227.10,5356.80"/>
        <lane id=":11028817791_0_2" index="2" allow="private emergency authority army vip passenger hov taxi bus coach delivery truck trailer motorcycle evehicle custom1 custom2" speed="22.22" length="8.16" shape="6220.68,5350.10 6221.40,5352.40 6222.27,5353.85 6223.18,5355.29 6224.00,5357.57"/>
        <lane id=":11028817791_0_3" index="3" allow="private emergency authority army vip passenger hov taxi bus coach delivery truck trailer motorcycle evehicle custom1 custom2" speed="22.22" length="8.16" shape="6217.54,5350.74 6218.27,5353.08 6219.15,5354.55 6220.06,5356.02 6220.89,5358.34"/>
    </edge>
    <edge id=":1103406302_0" function="internal">
        <lane id=":1103406302_0_0" index="0" allow="private emergency authority army vip passenger hov taxi bus coach delivery truck trailer motorcycle evehicle custom1 custom2" speed="23.61" length="0.32" shape="3579.38,1500.73 3579.53,1500.75 3579.62,1500.77 3579.72,1500.79 3579.86,1500.82"/>
        <lane id=":1103406302_0_1" index="1" allow="private emergency authority army vip passenger hov taxi bus coach delivery truck trailer motorcycle evehicle custom1 custom2" speed="23.61" length="0.32" shape="3578.94,1503.90 3578.98,1503.91 3579.02,1503.91 3579.05,1503.92 3579.09,1503.93"/>
    </edge>
    <edge id=":1103406307_0" function="internal">
        <lane id=":1103406307_0_0" index="0" allow="private emergency authority army vip passenger hov taxi bus coach delivery truck trailer motorcycle evehicle custom1 custom2" speed="22.22" length="3.04" shape="3958.95,1684.55 3956.27,1683.11"/>
    </edge>
    <edge id=":1103406307_1" function="internal">
        <lane id=":1103406307_1_0" index="0" allow="private emergency authority army vip passenger hov taxi bus coach delivery truck trailer motorcycle evehicle custom1 custom2" speed="22.22" length="2.98" shape="3960.42,1681.66 3957.76,1680.27"/>
        <lane id=":1103406307_1_1" index="1" allow="private emergency authority army vip passenger hov taxi bus coach delivery truck trailer motorcycle evehicle custom1 custom2" speed="22.22" length="2.98" shape="3961.87,1678.80 3959.24,1677.44"/>
    </edge>
    <edge id=":1103406316_0" function="internal">
        <lane id=":1103406316_0_0" index="0" allow="private emergency authority army vip passenger hov taxi bus coach delivery truck trailer motorcycle evehicle custom1 custom2" speed="22.22" length="2.93" shape="3967.07,1663.04 3969.64,1664.45"/>
    </edge>
    <edge id=":1103406316_1" function="internal">
        <lane id=":1103406316_1_0" index="0" allow="private emergency authority army vip passenger hov taxi bus coach delivery truck trailer motorcycle evehicle custom1 custom2" speed="22.22" length="2.63" shape="3965.62,1665.89 3966.34,1666.26 3966.83,1666.52 3967.31,1666.80 3967.99,1667.24"/>
        <lane id=":1103406316_1_1" index="1" allow="private emergency authority army vip passenger hov taxi bus coach delivery truck trailer motorcycle evehicle custom1 custom2" speed="22.22" length="2.63" shape="3964.17,1668.74 3964.84,1669.08 3965.29,1669.32 3965.73,1669.59 3966.36,1670.00"/>
    </edge>
    <edge id=":1103406460_0" function="internal">
        <lane id=":1103406460_0_0" index="0" allow="private emergency authority army vip passenger hov taxi bus coach delivery truck trailer motorcycle evehicle custom1 custom2" speed="30.83" length="7.51" shape="3580.54,1514.38 3578.36,1514.36 3576.88,1515.16 3575.39,1516.05 3573.15,1516.29"/>
        <lane id=":1103406460_0_1" index="1" allow="private emergency authority army vip passenger hov taxi bus coach delivery truck trailer motorcycle evehicle custom1 custom2" speed="30.83" length="7.51" shape="3580.54,1514.38 3578.48,1513.88 3577.06,1513.58 3575.63,1513.36 3573.53,1513.11"/>
        <lane id=":1103406460_0_2" index="2" allow="private emergency authority army vip passenger hov taxi bus coach delivery truck trailer motorcycle evehicle custom1 custom2" speed="30.83" length="7.51" shape="3581.30,1511.27 3579.13,1510.74 3577.63,1510.43 3576.12,1510.20 3573.90,1509.93"/>
    </edge>
    <edge id=":1103406498_0" function="internal">
        <lane id=":1103406498_0_0" index="0" allow="private emergency authority army vip passenger hov taxi bus coach delivery truck trailer motorcycle evehicle custom1 custom2" speed="25.27" length="2.47" shape="5108.64,2087.95 5107.92,2087.85 5107.42,2087.79 5106.92,2087.76 5106.19,2087.73"/>
    </edge>
    <edge id=":1103406498_1" function="internal">
        <lane id=":1103406498_1_0" index="0" allow="private emergency authority army vip passenger hov taxi bus coach delivery truck trailer motorcycle evehicle custom1 custom2" speed="39.44" length="2.81" shape="5109.01,2084.74 5106.33,2084.53"/>
        <lane id=":1103406498_1_1" index="1" allow="private emergency authority army vip passenger hov taxi bus coach delivery truck trailer motorcycle evehicle custom1 custom2" speed="39.44" length="2.81" shape="5109.38,2081.57 5106.47,2081.33"/>
    </edge>
    <edge id=":1103406500_0" function="internal">
        <lane id=":1103406500_0_0" index="0" allow="private emergency authority army vip passenger hov taxi bus coach delivery truck trailer motorcycle evehicle custom1 custom2" speed="30.83" length="0.29" shape="3981.06,1692.13 3980.83,1692.01"/>
        <lane id=":1103406500_0_1" index="1" allow="private emergency authority army vip passenger hov taxi bus coach delivery truck trailer motorcycle evehicle custom1 custom2" speed="30.83" length="0.29" shape="3982.55,1689.30 3982.28,1689.16"/>
    </edge>
    <edge id=":1105984390_0" function="internal">
        <lane id=":1105984390_0_0" index="0" allow="private emergency authority army vip passenger hov taxi bus coach delivery truck trailer motorcycle evehicle custom1 custom2" speed="16.66" length="2.57" shape="2862.87,7142.91 2860.33,7142.60"/>
    </edge>
    <edge id=":1105984390_1" function="internal">
        <lane id=":1105984390_1_0" index="0" allow="private emergency authority army vip passenger hov taxi bus coach delivery truck trailer motorcycle evehicle custom1 custom2" speed="22.22" length="2.99" shape="2863.36,7139.75 2860.61,7139.34"/>
        <lane id=":1105984390_1_1" index="1" allow="private emergency authority army vip passenger hov taxi bus coach delivery truck trailer motorcycle evehicle custom1 custom2" speed="22.22" length="2.99" shape="2863.85,7136.58 2860.89,7136.14"/>
        <lane id=":1105984390_1_2" index="2" allow="private emergency authority army vip passenger hov taxi bus coach delivery truck trailer motorcycle evehicle custom1 custom2" speed="22.22" length="2.99" shape="2864.33,7133.42 2861.18,7132.95"/>
    </edge>
    <edge id=":1106058825_0" function="internal">
        <lane id=":1106058825_0_0" index="0" allow="private emergency authority army vip passenger hov taxi bus coach delivery truck trailer motorcycle evehicle custom1 custom2" speed="27.78" length="7.83" shape="5681.03,2501.52 5687.22,2506.14"/>
        <lane id=":1106058825_0_1" index="1" allow="private emergency authority army vip passenger hov taxi bus coach delivery truck trailer motorcycle evehicle custom1 custom2" speed="27.78" length="7.83" shape="5679.03,2504.02 5685.39,2508.77"/>
    </edge>
    <edge id=":1110673412_0" function="internal">
        <lane id=":1110673412_0_0" index="0" allow="private emergency authority army vip passenger hov taxi bus coach delivery truck trailer motorcycle evehicle custom1 custom2" speed="22.22" length="0.29" shape="3152.62,7155.86 3152.98,7155.90"/>
        <lane id=":1110673412_0_1" index="1" allow="private emergency authority army vip passenger hov taxi bus coach delivery truck trailer motorcycle evehicle custom1 custom2" speed="22.22" length="0.29" shape="3152.24,7159.04 3152.55,7159.07"/>
        <lane id=":1110673412_0_2" index="2" allow="private emergency authority army vip passenger hov taxi bus coach delivery truck trailer motorcycle evehicle custom1 custom2" speed="22.22" length="0.29" shape="3151.87,7162.21 3152.13,7162.24"/>
        <lane id=":1110673412_0_3" index="3" allow="private emergency authority army vip passenger hov taxi bus coach delivery truck trailer motorcycle evehicle custom1 custom2" speed="22.22" length="0.29" shape="3151.49,7165.39 3151.71,7165.42"/>
    </edge>
    <edge id=":1110673464_0" function="internal">
        <lane id=":1110673464_0_0" index="0" allow="private emergency authority army vip passenger hov taxi bus coach delivery truck trailer motorcycle evehicle custom1 custom2" speed="22.22" length="2.83" shape="3076.67,7173.09 3073.87,7172.75"/>
    </edge>
    <edge id=":1110673464_1" function="internal">
        <lane id=":1110673464_1_0" index="0" allow="private emergency authority army vip passenger hov taxi bus coach delivery truck trailer motorcycle evehicle custom1 custom2" speed="22.22" length="3.03" shape="3077.12,7169.92 3074.22,7169.51"/>
        <lane id=":1110673464_1_1" index="1" allow="private emergency authority army vip passenger hov taxi bus coach delivery truck trailer motorcycle evehicle custom1 custom2" speed="22.22" length="3.03" shape="3077.57,7166.75 3074.57,7166.33"/>
        <lane id=":1110673464_1_2" index="2" allow="private emergency authority army vip passenger hov taxi bus coach delivery truck trailer motorcycle evehicle custom1 custom2" speed="22.22" length="3.03" shape="3078.01,7163.58 3074.92,7163.15"/>
    </edge>
    <edge id=":1110673549_0" function="internal">
        <lane id=":1110673549_0_0" index="0" allow="private emergency authority army vip passenger hov taxi bus coach delivery truck trailer motorcycle evehicle custom1 custom2" speed="22.22" length="3.17" shape="2386.66,7041.66 2387.56,7041.93 2388.18,7042.11 2388.81,7042.25 2389.73,7042.43"/>
    </edge>
    <edge id=":1110673549_1" function="internal">
        <lane id=":1110673549_1_0" index="0" allow="private emergency authority army vip passenger hov taxi bus coach delivery truck trailer motorcycle evehicle custom1 custom2" speed="22.22" length="3.37" shape="2385.71,7044.72 2388.85,7045.63"/>
        <lane id=":1110673549_1_1" index="1" allow="private emergency authority army vip passenger hov taxi bus coach delivery truck trailer motorcycle evehicle custom1 custom2" speed="22.22" length="3.37" shape="2384.77,7047.77 2388.00,7048.72"/>
        <lane id=":1110673549_1_2" index="2" allow="private emergency authority army vip passenger hov taxi bus coach delivery truck trailer motorcycle evehicle custom1 custom2" speed="22.22" length="3.37" shape="2383.83,7050.83 2387.16,7051.80"/>
    </edge>
    <edge id=":1110673561_0" function="internal">
        <lane id=":1110673561_0_0" index="0" allow="private emergency authority army vip passenger hov taxi bus coach delivery truck trailer motorcycle evehicle custom1 custom2" speed="22.22" length="2.88" shape="3138.74,7154.14 3141.59,7154.55"/>
    </edge>
    <edge id=":1110673561_1" function="internal">
        <lane id=":1110673561_1_0" index="0" allow="private emergency authority army vip passenger hov taxi bus coach delivery truck trailer motorcycle evehicle custom1 custom2" speed="22.22" length="3.00" shape="3138.30,7157.35 3141.22,7157.73"/>
        <lane id=":1110673561_1_1" index="1" allow="private emergency authority army vip passenger hov taxi bus coach delivery truck trailer motorcycle evehicle custom1 custom2" speed="22.22" length="3.00" shape="3137.86,7160.52 3140.84,7160.90"/>
        <lane id=":1110673561_1_2" index="2" allow="private emergency authority army vip passenger hov taxi bus coach delivery truck trailer motorcycle evehicle custom1 custom2" speed="22.22" length="3.00" shape="3137.43,7163.69 3140.46,7164.08"/>
    </edge>
    <edge id=":1110673672_0" function="internal">
        <lane id=":1110673672_0_0" index="0" allow="private emergency authority army vip passenger hov taxi bus coach delivery truck trailer motorcycle evehicle custom1 custom2" speed="39.44" length="7.45" shape="3070.59,1426.87 3068.44,1426.18 3066.99,1425.66 3065.56,1425.09 3063.48,1424.19"/>
        <lane id=":1110673672_0_1" index="1" allow="private emergency authority army vip passenger hov taxi bus coach delivery truck trailer motorcycle evehicle custom1 custom2" speed="39.44" length="7.45" shape="3071.57,1423.83 3069.51,1423.16 3068.12,1422.67 3066.74,1422.11 3064.76,1421.26"/>
    </edge>
    <edge id=":1110673725_0" function="internal">
        <lane id=":1110673725_0_0" index="0" allow="private emergency authority army vip passenger hov taxi bus coach delivery truck trailer motorcycle evehicle custom1 custom2" speed="16.67" length="7.23" shape="3280.56,1478.64 3278.43,1478.61 3276.95,1478.93 3275.49,1479.16 3273.41,1478.87"/>
    </edge>
    <edge id=":1112072631_0" function="internal">
        <lane id=":1112072631_0_0" index="0" allow="private emergency authority army vip passenger hov taxi bus coach delivery truck trailer motorcycle evehicle custom1 custom2" speed="39.44" length="3.07" shape="5450.43,2266.58 5449.91,2265.91 5449.55,2265.46 5449.16,2265.04 5448.56,2264.44"/>
        <lane id=":1112072631_0_1" index="1" allow="private emergency authority army vip passenger hov taxi bus coach delivery truck trailer motorcycle evehicle custom1 custom2" speed="39.44" length="3.07" shape="5452.96,2264.62 5452.36,2263.85 5451.94,2263.33 5451.48,2262.83 5450.79,2262.15"/>
    </edge>
    <edge id=":1112072631_2" function="internal">
        <lane id=":1112072631_2_0" index="0" allow="private emergency authority army vip passenger hov taxi bus coach delivery truck trailer motorcycle evehicle custom1 custom2" speed="25.27" length="2.41" shape="5447.99,2268.48 5446.33,2266.74"/>
    </edge>
    <edge id=":1112072997_0" function="internal">
        <lane id=":1112072997_0_0" index="0" allow="private emergency authority army vip passenger hov taxi bus coach delivery truck trailer motorcycle evehicle custom1 custom2" speed="25.00" length="3.14" shape="5417.56,2199.77 5419.96,2201.78"/>
    </edge>
    <edge id=":1112072997_1" function="internal">
        <lane id=":1112072997_1_0" index="0" allow="private emergency authority army vip passenger hov taxi bus coach delivery truck trailer motorcycle evehicle custom1 custom2" speed="27.78" length="3.26" shape="5415.40,2202.13 5417.80,2204.51"/>
        <lane id=":1112072997_1_1" index="1" allow="private emergency authority army vip passenger hov taxi bus coach delivery truck trailer motorcycle evehicle custom1 custom2" speed="27.78" length="3.26" shape="5413.23,2204.49 5415.46,2206.69"/>
    </edge>
    <edge id=":111464592_0" function="internal">
        <lane id=":111464592_0_0" index="0" allow="private emergency authority army vip passenger hov taxi bus coach delivery truck trailer motorcycle evehicle custom1 custom2" speed="22.22" length="3.02" shape="1014.78,4966.86 1015.80,4964.02"/>
    </edge>
    <edge id=":111464592_1" function="internal">
        <lane id=":111464592_1_0" index="0" allow="private emergency authority army vip passenger hov taxi bus coach delivery truck trailer motorcycle evehicle custom1 custom2" speed="22.22" length="2.99" shape="1017.80,4967.92 1018.83,4965.10"/>
        <lane id=":111464592_1_1" index="1" allow="private emergency authority army vip passenger hov taxi bus coach delivery truck trailer motorcycle evehicle custom1 custom2" speed="22.22" length="2.99" shape="1020.82,4968.99 1021.85,4966.18"/>
        <lane id=":111464592_1_2" index="2" allow="private emergency authority army vip passenger hov taxi bus coach delivery truck trailer motorcycle evehicle custom1 custom2" speed="22.22" length="2.99" shape="1023.84,4970.05 1024.86,4967.26"/>
    </edge>
    <edge id=":1131291609_0" function="internal">
        <lane id=":1131291609_0_0" index="0" allow="private emergency authority army vip passenger hov taxi bus coach delivery truck trailer motorcycle evehicle custom1 custom2" speed="22.22" length="3.48" shape="4639.41,2009.00 4640.32,2009.39 4640.95,2009.65 4641.59,2009.88 4642.53,2010.19"/>
        <lane id=":1131291609_0_1" index="1" allow="private emergency authority army vip passenger hov taxi bus coach delivery truck trailer motorcycle evehicle custom1 custom2" speed="22.22" length="3.48" shape="4638.16,2011.95 4639.15,2012.37 4639.83,2012.65 4640.52,2012.90 4641.55,2013.24"/>
    </edge>
    <edge id=":1131291609_2" function="internal">
        <lane id=":1131291609_2_0" index="0" allow="private emergency authority army vip passenger hov taxi bus coach delivery truck trailer motorcycle evehicle custom1 custom2" speed="22.22" length="3.05" shape="4640.61,2006.19 4643.51,2007.14"/>
    </edge>
    <edge id=":1145510972_0" function="internal">
        <lane id=":1145510972_0_0" index="0" allow="private emergency authority army vip passenger hov taxi bus coach delivery truck trailer motorcycle evehicle custom1 custom2" speed="23.61" length="10.75" shape="1819.73,1985.78 1826.66,1994.00"/>
    </edge>
    <edge id=":1145510972_1" function="internal">
        <lane id=":1145510972_1_0" index="0" allow="private emergency authority army vip passenger hov taxi bus coach delivery truck trailer motorcycle evehicle custom1 custom2" speed="25.00" length="4.48" shape="1816.54,1985.95 1816.59,1991.41"/>
        <lane id=":1145510972_1_1" index="1" allow="private emergency authority army vip passenger hov taxi bus coach delivery truck trailer motorcycle evehicle custom1 custom2" speed="25.00" length="4.48" shape="1813.34,1986.12 1813.40,1990.59"/>
        <lane id=":1145510972_1_2" index="2" allow="private emergency authority army vip passenger hov taxi bus coach delivery truck trailer motorcycle evehicle custom1 custom2" speed="25.00" length="4.48" shape="1810.15,1986.28 1810.21,1989.77"/>
    </edge>
    <edge id=":1145511528_0" function="internal">
        <lane id=":1145511528_0_0" index="0" allow="private emergency authority army vip passenger hov taxi bus coach delivery truck trailer motorcycle evehicle custom1 custom2" speed="22.22" length="3.07" shape="1493.35,3876.96 1492.65,3879.94"/>
    </edge>
    <edge id=":1145511528_1" function="internal">
        <lane id=":1145511528_1_0" index="0" allow="private emergency authority army vip passenger hov taxi bus coach delivery truck trailer motorcycle evehicle custom1 custom2" speed="22.22" length="2.82" shape="1490.07,3876.41 1489.52,3879.28"/>
        <lane id=":1145511528_1_1" index="1" allow="private emergency authority army vip passenger hov taxi bus coach delivery truck trailer motorcycle evehicle custom1 custom2" speed="22.22" length="2.82" shape="1486.92,3875.85 1486.39,3878.62"/>
        <lane id=":1145511528_1_2" index="2" allow="private emergency authority army vip passenger hov taxi bus coach delivery truck trailer motorcycle evehicle custom1 custom2" speed="22.22" length="2.82" shape="1483.77,3875.29 1483.26,3877.96"/>
    </edge>
    <edge id=":1145512768_0" function="internal">
        <lane id=":1145512768_0_0" index="0" allow="private emergency authority army vip passenger hov taxi bus coach delivery truck trailer motorcycle evehicle custom1 custom2" speed="22.22" length="2.56" shape="1540.08,3659.06 1539.42,3661.53"/>
    </edge>
    <edge id=":1145512768_1" function="internal">
        <lane id=":1145512768_1_0" index="0" allow="private emergency authority army vip passenger hov taxi bus coach delivery truck trailer motorcycle evehicle custom1 custom2" speed="22.22" length="3.00" shape="1537.03,3658.11 1536.20,3660.77"/>
        <lane id=":1145512768_1_1" index="1" allow="private emergency authority army vip passenger hov taxi bus coach delivery truck trailer motorcycle evehicle custom1 custom2" speed="22.22" length="3.00" shape="1533.97,3657.17 1533.08,3660.03"/>
        <lane id=":1145512768_1_2" index="2" allow="private emergency authority army vip passenger hov taxi bus coach delivery truck trailer motorcycle evehicle custom1 custom2" speed="22.22" length="3.00" shape="1530.91,3656.22 1529.96,3659.29"/>
    </edge>
    <edge id=":1146570357_0" function="internal">
        <lane id=":1146570357_0_0" index="0" allow="private emergency authority army vip passenger hov taxi bus coach delivery truck trailer motorcycle evehicle custom1 custom2" speed="25.00" length="7.90" shape="1789.70,1877.00 1789.66,1868.98"/>
        <lane id=":1146570357_0_1" index="1" allow="private emergency authority army vip passenger hov taxi bus coach delivery truck trailer motorcycle evehicle custom1 custom2" speed="25.00" length="7.90" shape="1792.90,1876.93 1792.86,1869.03"/>
        <lane id=":1146570357_0_2" index="2" allow="private emergency authority army vip passenger hov taxi bus coach delivery truck trailer motorcycle evehicle custom1 custom2" speed="25.00" length="7.90" shape="1796.10,1876.85 1796.06,1869.07"/>
    </edge>
    <edge id=":1147305736_0" function="internal">
        <lane id=":1147305736_0_0" index="0" allow="private emergency authority army vip passenger hov taxi bus coach delivery truck trailer motorcycle evehicle custom1 custom2" speed="23.61" length="3.23" shape="2778.86,1144.11 2779.24,1144.99 2779.51,1145.59 2779.83,1146.16 2780.32,1146.99"/>
    </edge>
    <edge id=":1147305736_1" function="internal">
        <lane id=":1147305736_1_0" index="0" allow="private emergency authority army vip passenger hov taxi bus coach delivery truck trailer motorcycle evehicle custom1 custom2" speed="25.00" length="3.52" shape="2775.90,1145.65 2777.58,1148.64"/>
        <lane id=":1147305736_1_1" index="1" allow="private emergency authority army vip passenger hov taxi bus coach delivery truck trailer motorcycle evehicle custom1 custom2" speed="25.00" length="3.52" shape="2773.07,1147.15 2774.85,1150.30"/>
    </edge>
    <edge id=":1147305927_0" function="internal">
        <lane id=":1147305927_0_0" index="0" allow="private emergency authority army vip passenger hov taxi bus coach delivery truck trailer motorcycle evehicle custom1 custom2" speed="26.66" length="3.11" shape="2707.00,1046.18 2705.78,1043.32"/>
    </edge>
    <edge id=":1147305927_1" function="internal">
        <lane id=":1147305927_1_0" index="0" allow="private emergency authority army vip passenger hov taxi bus coach delivery truck trailer motorcycle evehicle custom1 custom2" speed="39.44" length="3.09" shape="2709.99,1044.76 2708.68,1041.96"/>
        <lane id=":1147305927_1_1" index="1" allow="private emergency authority army vip passenger hov taxi bus coach delivery truck trailer motorcycle evehicle custom1 custom2" speed="39.44" length="3.09" shape="2712.88,1043.40 2711.57,1040.60"/>
    </edge>
    <edge id=":1165499590#0-AddedOffRampNode_0" function="internal">
        <lane id=":1165499590#0-AddedOffRampNode_0_0" index="0" allow="private emergency authority army vip passenger hov taxi bus coach delivery truck trailer motorcycle evehicle custom1 custom2" speed="27.78" length="8.27" shape="2948.26,576.28 2946.04,577.46 2944.88,578.95 2943.72,580.44 2941.50,581.62"/>