<?xml version='1.0' encoding='UTF-8'?>
<additional xmlns="http://sumo.dlr.de/xsd/additional_file.xsd" xmlns:xsi="http://www.w3.org/2001/XMLSchema-instance">
  <inductionLoop id="e_105482347_0" lane="105482347_0" pos="0" period="300.0" file="e_output.xml.xml"/>
  <inductionLoop id="e_105482347_1" lane="105482347_1" pos="0" period="300.0" file="e_output.xml.xml"/>
  <inductionLoop id="e_105482347_2" lane="105482347_2" pos="0" period="300.0" file="e_output.xml.xml"/>
  <inductionLoop id="e_4256485_0" lane="4256485_0" pos="0" period="300.0" file="e_output.xml.xml"/>
  <inductionLoop id="e_479127846_0" lane="479127846_0" pos="0" period="300.0" file="e_output.xml.xml"/>
  <inductionLoop id="e_479127846_1" lane="479127846_1" pos="0" period="300.0" file="e_output.xml.xml"/>
  <inductionLoop id="e_479127846_2" lane="479127846_2" pos="0" period="300.0" file="e_output.xml.xml"/>
  <inductionLoop id="e_479127846_3" lane="479127846_3" pos="0" period="300.0" file="e_output.xml.xml"/>
  <inductionLoop id="e_479127846_4" lane="479127846_4" pos="0" period="300.0" file="e_output.xml.xml"/>
  <inductionLoop id="e_95374587_0" lane="95374587_0" pos="0" period="300.0" file="e_output.xml.xml"/>
  <inductionLoop id="e_95374587_1" lane="95374587_1" pos="0" period="300.0" file="e_output.xml.xml"/>
  <inductionLoop id="e_98825971_0" lane="98825971_0" pos="0" period="300.0" file="e_output.xml.xml"/>
  <inductionLoop id="e_1058622694_0" lane="1058622694_0" pos="0" period="300.0" file="e_output.xml.xml"/>
  <inductionLoop id="e_1058622694_1" lane="1058622694_1" pos="0" period="300.0" file="e_output.xml.xml"/>
  <inductionLoop id="e_106441015_0" lane="106441015_0" pos="0" period="300.0" file="e_output.xml.xml"/>
  <inductionLoop id="e_106441015_1" lane="106441015_1" pos="0" period="300.0" file="e_output.xml.xml"/>
  <inductionLoop id="e_106441015_2" lane="106441015_2" pos="0" period="300.0" file="e_output.xml.xml"/>
  <inductionLoop id="e_386578590_0" lane="386578590_0" pos="0" period="300.0" file="e_output.xml.xml"/>
  <inductionLoop id="e_106586052_0" lane="106586052_0" pos="0" period="300.0" file="e_output.xml.xml"/>
  <inductionLoop id="e_95841156_0" lane="95841156_0" pos="0" period="300.0" file="e_output.xml.xml"/>
  <inductionLoop id="e_95841156_1" lane="95841156_1" pos="0" period="300.0" file="e_output.xml.xml"/>
  <inductionLoop id="e_95841156_2" lane="95841156_2" pos="0" period="300.0" file="e_output.xml.xml"/>
  <inductionLoop id="e_95841156_3" lane="95841156_3" pos="0" period="300.0" file="e_output.xml.xml"/>
  <inductionLoop id="e_1165239239_0" lane="1165239239_0" pos="0" period="300.0" file="e_output.xml.xml"/>
  <inductionLoop id="e_1165239239_1" lane="1165239239_1" pos="0" period="300.0" file="e_output.xml.xml"/>
  <inductionLoop id="e_1165239239_2" lane="1165239239_2" pos="0" period="300.0" file="e_output.xml.xml"/>
  <inductionLoop id="e_1096803816_0" lane="1096803816_0" pos="0" period="300.0" file="e_output.xml.xml"/>
  <inductionLoop id="e_1096803816_1" lane="1096803816_1" pos="0" period="300.0" file="e_output.xml.xml"/>
  <inductionLoop id="e_839842701_0" lane="839842701_0" pos="0" period="300.0" file="e_output.xml.xml"/>
  <inductionLoop id="e_460986048_0" lane="460986048_0" pos="0" period="300.0" file="e_output.xml.xml"/>
  <inductionLoop id="e_460986048_1" lane="460986048_1" pos="0" period="300.0" file="e_output.xml.xml"/>
  <inductionLoop id="e_460986048_2" lane="460986048_2" pos="0" period="300.0" file="e_output.xml.xml"/>
  <inductionLoop id="e_1165239234_0" lane="1165239234_0" pos="0" period="300.0" file="e_output.xml.xml"/>
  <inductionLoop id="e_24790621_0" lane="24790621_0" pos="0" period="300.0" file="e_output.xml.xml"/>
  <inductionLoop id="e_24790621_1" lane="24790621_1" pos="0" period="300.0" file="e_output.xml.xml"/>
  <inductionLoop id="e_1165263977_0" lane="1165263977_0" pos="0" period="300.0" file="e_output.xml.xml"/>
  <inductionLoop id="e_1165263977_1" lane="1165263977_1" pos="0" period="300.0" file="e_output.xml.xml"/>
  <inductionLoop id="e_1165239236_0" lane="1165239236_0" pos="0" period="300.0" file="e_output.xml.xml"/>
  <inductionLoop id="e_1165239236_1" lane="1165239236_1" pos="0" period="300.0" file="e_output.xml.xml"/>
  <inductionLoop id="e_99185260_0" lane="99185260_0" pos="0" period="300.0" file="e_output.xml.xml"/>
  <inductionLoop id="e_474423785_0" lane="474423785_0" pos="0" period="300.0" file="e_output.xml.xml"/>
  <inductionLoop id="e_474423785_1" lane="474423785_1" pos="0" period="300.0" file="e_output.xml.xml"/>
  <inductionLoop id="e_474423785_2" lane="474423785_2" pos="0" period="300.0" file="e_output.xml.xml"/>
  <inductionLoop id="e_95841103_0" lane="95841103_0" pos="0" period="300.0" file="e_output.xml.xml"/>
  <inductionLoop id="e_95841103_1" lane="95841103_1" pos="0" period="300.0" file="e_output.xml.xml"/>
  <inductionLoop id="e_95841103_2" lane="95841103_2" pos="0" period="300.0" file="e_output.xml.xml"/>
  <inductionLoop id="e_1165239238_0" lane="1165239238_0" pos="0" period="300.0" file="e_output.xml.xml"/>
  <inductionLoop id="e_1165239238_1" lane="1165239238_1" pos="0" period="300.0" file="e_output.xml.xml"/>
  <inductionLoop id="e_1165240362_0" lane="1165240362_0" pos="0" period="300.0" file="e_output.xml.xml"/>
  <inductionLoop id="e_1165240362_1" lane="1165240362_1" pos="0" period="300.0" file="e_output.xml.xml"/>
  <inductionLoop id="e_1165240362_2" lane="1165240362_2" pos="0" period="300.0" file="e_output.xml.xml"/>
  <inductionLoop id="e_1165240364_0" lane="1165240364_0" pos="0" period="300.0" file="e_output.xml.xml"/>
  <inductionLoop id="e_1165240364_1" lane="1165240364_1" pos="0" period="300.0" file="e_output.xml.xml"/>
  <inductionLoop id="e_1165240364_2" lane="1165240364_2" pos="0" period="300.0" file="e_output.xml.xml"/>
  <inductionLoop id="e_1165240366_0" lane="1165240366_0" pos="0" period="300.0" file="e_output.xml.xml"/>
  <inductionLoop id="e_1165240366_1" lane="1165240366_1" pos="0" period="300.0" file="e_output.xml.xml"/>
  <inductionLoop id="e_95117793_0" lane="95117793_0" pos="0" period="300.0" file="e_output.xml.xml"/>
  <inductionLoop id="e_1165240369_0" lane="1165240369_0" pos="0" period="300.0" file="e_output.xml.xml"/>
  <inductionLoop id="e_1165240369_1" lane="1165240369_1" pos="0" period="300.0" file="e_output.xml.xml"/>
  <inductionLoop id="e_1165240369_2" lane="1165240369_2" pos="0" period="300.0" file="e_output.xml.xml"/>
  <inductionLoop id="e_1165499578_0" lane="1165499578_0" pos="0" period="300.0" file="e_output.xml.xml"/>
  <inductionLoop id="e_1165499578_1" lane="1165499578_1" pos="0" period="300.0" file="e_output.xml.xml"/>
  <inductionLoop id="e_1165499578_2" lane="1165499578_2" pos="0" period="300.0" file="e_output.xml.xml"/>
  <inductionLoop id="e_1165499578_3" lane="1165499578_3" pos="0" period="300.0" file="e_output.xml.xml"/>
  <inductionLoop id="e_1165499582_0" lane="1165499582_0" pos="0" period="300.0" file="e_output.xml.xml"/>
  <inductionLoop id="e_479187303_0" lane="479187303_0" pos="0" period="300.0" file="e_output.xml.xml"/>
  <inductionLoop id="e_479187303_1" lane="479187303_1" pos="0" period="300.0" file="e_output.xml.xml"/>
  <inductionLoop id="e_479187303_2" lane="479187303_2" pos="0" period="300.0" file="e_output.xml.xml"/>
  <inductionLoop id="e_479187303_3" lane="479187303_3" pos="0" period="300.0" file="e_output.xml.xml"/>
  <inductionLoop id="e_1165499589_0" lane="1165499589_0" pos="0" period="300.0" file="e_output.xml.xml"/>
  <inductionLoop id="e_1165499589_1" lane="1165499589_1" pos="0" period="300.0" file="e_output.xml.xml"/>
  <inductionLoop id="e_1165499589_2" lane="1165499589_2" pos="0" period="300.0" file="e_output.xml.xml"/>
  <inductionLoop id="e_1165499590#1_0" lane="1165499590#1_0" pos="0" period="300.0" file="e_output.xml.xml"/>
  <inductionLoop id="e_1165499590#1_1" lane="1165499590#1_1" pos="0" period="300.0" file="e_output.xml.xml"/>
  <inductionLoop id="e_24790552_0" lane="24790552_0" pos="0" period="300.0" file="e_output.xml.xml"/>
  <inductionLoop id="e_1174689806_0" lane="1174689806_0" pos="0" period="300.0" file="e_output.xml.xml"/>
  <inductionLoop id="e_95117812#1_0" lane="95117812#1_0" pos="0" period="300.0" file="e_output.xml.xml"/>
  <inductionLoop id="e_95117812#1_1" lane="95117812#1_1" pos="0" period="300.0" file="e_output.xml.xml"/>
  <inductionLoop id="e_1165499593_0" lane="1165499593_0" pos="0" period="300.0" file="e_output.xml.xml"/>
  <inductionLoop id="e_1165499593_1" lane="1165499593_1" pos="0" period="300.0" file="e_output.xml.xml"/>
  <inductionLoop id="e_1165499593_2" lane="1165499593_2" pos="0" period="300.0" file="e_output.xml.xml"/>
  <inductionLoop id="e_1165499594_0" lane="1165499594_0" pos="0" period="300.0" file="e_output.xml.xml"/>
  <inductionLoop id="e_1165499594_1" lane="1165499594_1" pos="0" period="300.0" file="e_output.xml.xml"/>
  <inductionLoop id="e_1165499594_2" lane="1165499594_2" pos="0" period="300.0" file="e_output.xml.xml"/>
  <inductionLoop id="e_139455435_0" lane="139455435_0" pos="0" period="300.0" file="e_output.xml.xml"/>
  <inductionLoop id="e_139455435_1" lane="139455435_1" pos="0" period="300.0" file="e_output.xml.xml"/>
  <inductionLoop id="e_95984945_0" lane="95984945_0" pos="0" period="300.0" file="e_output.xml.xml"/>
  <inductionLoop id="e_1165499595_0" lane="1165499595_0" pos="0" period="300.0" file="e_output.xml.xml"/>
  <inductionLoop id="e_1165499595_1" lane="1165499595_1" pos="0" period="300.0" file="e_output.xml.xml"/>
  <inductionLoop id="e_1165499595_2" lane="1165499595_2" pos="0" period="300.0" file="e_output.xml.xml"/>
  <inductionLoop id="e_139455457_0" lane="139455457_0" pos="0" period="300.0" file="e_output.xml.xml"/>
  <inductionLoop id="e_139455457_1" lane="139455457_1" pos="0" period="300.0" file="e_output.xml.xml"/>
  <inductionLoop id="e_95984936_0" lane="95984936_0" pos="0" period="300.0" file="e_output.xml.xml"/>
  <inductionLoop id="e_1165499596_0" lane="1165499596_0" pos="0" period="300.0" file="e_output.xml.xml"/>
  <inductionLoop id="e_1165499596_1" lane="1165499596_1" pos="0" period="300.0" file="e_output.xml.xml"/>
  <inductionLoop id="e_1165499596_2" lane="1165499596_2" pos="0" period="300.0" file="e_output.xml.xml"/>
  <inductionLoop id="e_1165499596_3" lane="1165499596_3" pos="0" period="300.0" file="e_output.xml.xml"/>
  <inductionLoop id="e_1165499597_0" lane="1165499597_0" pos="0" period="300.0" file="e_output.xml.xml"/>
  <inductionLoop id="e_1165499597_1" lane="1165499597_1" pos="0" period="300.0" file="e_output.xml.xml"/>
  <inductionLoop id="e_1165499597_2" lane="1165499597_2" pos="0" period="300.0" file="e_output.xml.xml"/>
  <inductionLoop id="e_54375651#0_0" lane="54375651#0_0" pos="0" period="300.0" file="e_output.xml.xml"/>
  <inductionLoop id="e_1165499598_0" lane="1165499598_0" pos="0" period="300.0" file="e_output.xml.xml"/>
  <inductionLoop id="e_1165499598_1" lane="1165499598_1" pos="0" period="300.0" file="e_output.xml.xml"/>
  <inductionLoop id="e_1165499598_2" lane="1165499598_2" pos="0" period="300.0" file="e_output.xml.xml"/>
  <inductionLoop id="e_1165499598_3" lane="1165499598_3" pos="0" period="300.0" file="e_output.xml.xml"/>
  <inductionLoop id="e_1167578689_0" lane="1167578689_0" pos="0" period="300.0" file="e_output.xml.xml"/>
  <inductionLoop id="e_479365561_0" lane="479365561_0" pos="0" period="300.0" file="e_output.xml.xml"/>
  <inductionLoop id="e_479365561_1" lane="479365561_1" pos="0" period="300.0" file="e_output.xml.xml"/>
  <inductionLoop id="e_479365561_2" lane="479365561_2" pos="0" period="300.0" file="e_output.xml.xml"/>
  <inductionLoop id="e_479365561_3" lane="479365561_3" pos="0" period="300.0" file="e_output.xml.xml"/>
  <inductionLoop id="e_1174008829_0" lane="1174008829_0" pos="0" period="300.0" file="e_output.xml.xml"/>
  <inductionLoop id="e_1174008829_1" lane="1174008829_1" pos="0" period="300.0" file="e_output.xml.xml"/>
  <inductionLoop id="e_478886779_0" lane="478886779_0" pos="0" period="300.0" file="e_output.xml.xml"/>
  <inductionLoop id="e_478886779_1" lane="478886779_1" pos="0" period="300.0" file="e_output.xml.xml"/>
  <inductionLoop id="e_478886779_2" lane="478886779_2" pos="0" period="300.0" file="e_output.xml.xml"/>
  <inductionLoop id="e_478886779_3" lane="478886779_3" pos="0" period="300.0" file="e_output.xml.xml"/>
  <inductionLoop id="e_478886779_4" lane="478886779_4" pos="0" period="300.0" file="e_output.xml.xml"/>
  <inductionLoop id="e_1174008830_0" lane="1174008830_0" pos="0" period="300.0" file="e_output.xml.xml"/>
  <inductionLoop id="e_345566831_0" lane="345566831_0" pos="0" period="300.0" file="e_output.xml.xml"/>
  <inductionLoop id="e_345566831_1" lane="345566831_1" pos="0" period="300.0" file="e_output.xml.xml"/>
  <inductionLoop id="e_345566831_2" lane="345566831_2" pos="0" period="300.0" file="e_output.xml.xml"/>
  <inductionLoop id="e_345566831_3" lane="345566831_3" pos="0" period="300.0" file="e_output.xml.xml"/>
  <inductionLoop id="e_1174461335_0" lane="1174461335_0" pos="0" period="300.0" file="e_output.xml.xml"/>
  <inductionLoop id="e_1174461335_1" lane="1174461335_1" pos="0" period="300.0" file="e_output.xml.xml"/>
  <inductionLoop id="e_1174461335_2" lane="1174461335_2" pos="0" period="300.0" file="e_output.xml.xml"/>
  <inductionLoop id="e_1174461335_3" lane="1174461335_3" pos="0" period="300.0" file="e_output.xml.xml"/>
  <inductionLoop id="e_1174689800_0" lane="1174689800_0" pos="0" period="300.0" file="e_output.xml.xml"/>
  <inductionLoop id="e_139455439_0" lane="139455439_0" pos="0" period="300.0" file="e_output.xml.xml"/>
  <inductionLoop id="e_139455439_1" lane="139455439_1" pos="0" period="300.0" file="e_output.xml.xml"/>
  <inductionLoop id="e_1174689807_0" lane="1174689807_0" pos="0" period="300.0" file="e_output.xml.xml"/>
  <inductionLoop id="e_95117802_0" lane="95117802_0" pos="0" period="300.0" file="e_output.xml.xml"/>
  <inductionLoop id="e_95117802_1" lane="95117802_1" pos="0" period="300.0" file="e_output.xml.xml"/>
  <inductionLoop id="e_95117802_2" lane="95117802_2" pos="0" period="300.0" file="e_output.xml.xml"/>
  <inductionLoop id="e_1177120141_0" lane="1177120141_0" pos="0" period="300.0" file="e_output.xml.xml"/>
  <inductionLoop id="e_29036532_0" lane="29036532_0" pos="0" period="300.0" file="e_output.xml.xml"/>
  <inductionLoop id="e_29036532_1" lane="29036532_1" pos="0" period="300.0" file="e_output.xml.xml"/>
  <inductionLoop id="e_29036532_2" lane="29036532_2" pos="0" period="300.0" file="e_output.xml.xml"/>
  <inductionLoop id="e_29036532_3" lane="29036532_3" pos="0" period="300.0" file="e_output.xml.xml"/>
  <inductionLoop id="e_118670828#1_0" lane="118670828#1_0" pos="0" period="300.0" file="e_output.xml.xml"/>
  <inductionLoop id="e_480146192_0" lane="480146192_0" pos="0" period="300.0" file="e_output.xml.xml"/>
  <inductionLoop id="e_480146192_1" lane="480146192_1" pos="0" period="300.0" file="e_output.xml.xml"/>
  <inductionLoop id="e_480146192_2" lane="480146192_2" pos="0" period="300.0" file="e_output.xml.xml"/>
  <inductionLoop id="e_480146192_3" lane="480146192_3" pos="0" period="300.0" file="e_output.xml.xml"/>
  <inductionLoop id="e_1187721765_0" lane="1187721765_0" pos="0" period="300.0" file="e_output.xml.xml"/>
  <inductionLoop id="e_1187721765_1" lane="1187721765_1" pos="0" period="300.0" file="e_output.xml.xml"/>
  <inductionLoop id="e_1187721765_2" lane="1187721765_2" pos="0" period="300.0" file="e_output.xml.xml"/>
  <inductionLoop id="e_1187721765_3" lane="1187721765_3" pos="0" period="300.0" file="e_output.xml.xml"/>
  <inductionLoop id="e_480148045_0" lane="480148045_0" pos="0" period="300.0" file="e_output.xml.xml"/>
  <inductionLoop id="e_480148045_1" lane="480148045_1" pos="0" period="300.0" file="e_output.xml.xml"/>
  <inductionLoop id="e_480148045_2" lane="480148045_2" pos="0" period="300.0" file="e_output.xml.xml"/>
  <inductionLoop id="e_484778540_0" lane="484778540_0" pos="0" period="300.0" file="e_output.xml.xml"/>
  <inductionLoop id="e_1187721767_0" lane="1187721767_0" pos="0" period="300.0" file="e_output.xml.xml"/>
  <inductionLoop id="e_1187721767_1" lane="1187721767_1" pos="0" period="300.0" file="e_output.xml.xml"/>
  <inductionLoop id="e_1187721767_2" lane="1187721767_2" pos="0" period="300.0" file="e_output.xml.xml"/>
  <inductionLoop id="e_1187721767_3" lane="1187721767_3" pos="0" period="300.0" file="e_output.xml.xml"/>
  <inductionLoop id="e_1187721767_4" lane="1187721767_4" pos="0" period="300.0" file="e_output.xml.xml"/>
  <inductionLoop id="e_1225499020_0" lane="1225499020_0" pos="0" period="300.0" file="e_output.xml.xml"/>
  <inductionLoop id="e_460986037_0" lane="460986037_0" pos="0" period="300.0" file="e_output.xml.xml"/>
  <inductionLoop id="e_460986037_1" lane="460986037_1" pos="0" period="300.0" file="e_output.xml.xml"/>
  <inductionLoop id="e_460986037_2" lane="460986037_2" pos="0" period="300.0" file="e_output.xml.xml"/>
  <inductionLoop id="e_1225499021_0" lane="1225499021_0" pos="0" period="300.0" file="e_output.xml.xml"/>
  <inductionLoop id="e_12297710#0_0" lane="12297710#0_0" pos="0" period="300.0" file="e_output.xml.xml"/>
  <inductionLoop id="e_12297710#0_1" lane="12297710#0_1" pos="0" period="300.0" file="e_output.xml.xml"/>
  <inductionLoop id="e_35539786#0_0" lane="35539786#0_0" pos="0" period="300.0" file="e_output.xml.xml"/>
  <inductionLoop id="e_35539786#0_1" lane="35539786#0_1" pos="0" period="300.0" file="e_output.xml.xml"/>
  <inductionLoop id="e_35539786#0_2" lane="35539786#0_2" pos="0" period="300.0" file="e_output.xml.xml"/>
  <inductionLoop id="e_12298305_0" lane="12298305_0" pos="0" period="300.0" file="e_output.xml.xml"/>
  <inductionLoop id="e_479165072_0" lane="479165072_0" pos="0" period="300.0" file="e_output.xml.xml"/>
  <inductionLoop id="e_479165072_1" lane="479165072_1" pos="0" period="300.0" file="e_output.xml.xml"/>
  <inductionLoop id="e_479165072_2" lane="479165072_2" pos="0" period="300.0" file="e_output.xml.xml"/>
  <inductionLoop id="e_54379553_0" lane="54379553_0" pos="0" period="300.0" file="e_output.xml.xml"/>
  <inductionLoop id="e_95117787_0" lane="95117787_0" pos="0" period="300.0" file="e_output.xml.xml"/>
  <inductionLoop id="e_95117787_1" lane="95117787_1" pos="0" period="300.0" file="e_output.xml.xml"/>
  <inductionLoop id="e_1230014164_0" lane="1230014164_0" pos="0" period="300.0" file="e_output.xml.xml"/>
  <inductionLoop id="e_95362523_0" lane="95362523_0" pos="0" period="300.0" file="e_output.xml.xml"/>
  <inductionLoop id="e_95362523_1" lane="95362523_1" pos="0" period="300.0" file="e_output.xml.xml"/>
  <inductionLoop id="e_12389533_0" lane="12389533_0" pos="0" period="300.0" file="e_output.xml.xml"/>
  <inductionLoop id="e_453274475_0" lane="453274475_0" pos="0" period="300.0" file="e_output.xml.xml"/>
  <inductionLoop id="e_453274475_1" lane="453274475_1" pos="0" period="300.0" file="e_output.xml.xml"/>
  <inductionLoop id="e_453274475_2" lane="453274475_2" pos="0" period="300.0" file="e_output.xml.xml"/>
  <inductionLoop id="e_12543140_0" lane="12543140_0" pos="0" period="300.0" file="e_output.xml.xml"/>
  <inductionLoop id="e_497153702_0" lane="497153702_0" pos="0" period="300.0" file="e_output.xml.xml"/>
  <inductionLoop id="e_497153702_1" lane="497153702_1" pos="0" period="300.0" file="e_output.xml.xml"/>
  <inductionLoop id="e_497153702_2" lane="497153702_2" pos="0" period="300.0" file="e_output.xml.xml"/>
  <inductionLoop id="e_497153702_3" lane="497153702_3" pos="0" period="300.0" file="e_output.xml.xml"/>
  <inductionLoop id="e_12543151_0" lane="12543151_0" pos="0" period="300.0" file="e_output.xml.xml"/>
  <inductionLoop id="e_35446606_0" lane="35446606_0" pos="0" period="300.0" file="e_output.xml.xml"/>
  <inductionLoop id="e_35446606_1" lane="35446606_1" pos="0" period="300.0" file="e_output.xml.xml"/>
  <inductionLoop id="e_35446606_2" lane="35446606_2" pos="0" period="300.0" file="e_output.xml.xml"/>
  <inductionLoop id="e_35446606_3" lane="35446606_3" pos="0" period="300.0" file="e_output.xml.xml"/>
  <inductionLoop id="e_12543154_0" lane="12543154_0" pos="0" period="300.0" file="e_output.xml.xml"/>
  <inductionLoop id="e_484986691_0" lane="484986691_0" pos="0" period="300.0" file="e_output.xml.xml"/>
  <inductionLoop id="e_484986691_1" lane="484986691_1" pos="0" period="300.0" file="e_output.xml.xml"/>
  <inductionLoop id="e_484986691_2" lane="484986691_2" pos="0" period="300.0" file="e_output.xml.xml"/>
  <inductionLoop id="e_484986691_3" lane="484986691_3" pos="0" period="300.0" file="e_output.xml.xml"/>
  <inductionLoop id="e_484986691_4" lane="484986691_4" pos="0" period="300.0" file="e_output.xml.xml"/>
  <inductionLoop id="e_12543217_0" lane="12543217_0" pos="0" period="300.0" file="e_output.xml.xml"/>
  <inductionLoop id="e_29036540_0" lane="29036540_0" pos="0" period="300.0" file="e_output.xml.xml"/>
  <inductionLoop id="e_29036540_1" lane="29036540_1" pos="0" period="300.0" file="e_output.xml.xml"/>
  <inductionLoop id="e_29036540_2" lane="29036540_2" pos="0" period="300.0" file="e_output.xml.xml"/>
  <inductionLoop id="e_29036540_3" lane="29036540_3" pos="0" period="300.0" file="e_output.xml.xml"/>
  <inductionLoop id="e_12543642_0" lane="12543642_0" pos="0" period="300.0" file="e_output.xml.xml"/>
  <inductionLoop id="e_29036543_0" lane="29036543_0" pos="0" period="300.0" file="e_output.xml.xml"/>
  <inductionLoop id="e_29036543_1" lane="29036543_1" pos="0" period="300.0" file="e_output.xml.xml"/>
  <inductionLoop id="e_29036543_2" lane="29036543_2" pos="0" period="300.0" file="e_output.xml.xml"/>
  <inductionLoop id="e_29036543_3" lane="29036543_3" pos="0" period="300.0" file="e_output.xml.xml"/>
  <inductionLoop id="e_12543749_0" lane="12543749_0" pos="0" period="300.0" file="e_output.xml.xml"/>
  <inductionLoop id="e_497150661_0" lane="497150661_0" pos="0" period="300.0" file="e_output.xml.xml"/>
  <inductionLoop id="e_497150661_1" lane="497150661_1" pos="0" period="300.0" file="e_output.xml.xml"/>
  <inductionLoop id="e_497150661_2" lane="497150661_2" pos="0" period="300.0" file="e_output.xml.xml"/>
  <inductionLoop id="e_497150661_3" lane="497150661_3" pos="0" period="300.0" file="e_output.xml.xml"/>
  <inductionLoop id="e_497150661_4" lane="497150661_4" pos="0" period="300.0" file="e_output.xml.xml"/>
  <inductionLoop id="e_13530808_0" lane="13530808_0" pos="0" period="300.0" file="e_output.xml.xml"/>
  <inductionLoop id="e_13530808_1" lane="13530808_1" pos="0" period="300.0" file="e_output.xml.xml"/>
  <inductionLoop id="e_365315018_0" lane="365315018_0" pos="0" period="300.0" file="e_output.xml.xml"/>
  <inductionLoop id="e_365315018_1" lane="365315018_1" pos="0" period="300.0" file="e_output.xml.xml"/>
  <inductionLoop id="e_13702954_0" lane="13702954_0" pos="0" period="300.0" file="e_output.xml.xml"/>
  <inductionLoop id="e_63202744_0" lane="63202744_0" pos="0" period="300.0" file="e_output.xml.xml"/>
  <inductionLoop id="e_63202744_1" lane="63202744_1" pos="0" period="300.0" file="e_output.xml.xml"/>
  <inductionLoop id="e_63202744_2" lane="63202744_2" pos="0" period="300.0" file="e_output.xml.xml"/>
  <inductionLoop id="e_13712407_0" lane="13712407_0" pos="0" period="300.0" file="e_output.xml.xml"/>
  <inductionLoop id="e_479178723_0" lane="479178723_0" pos="0" period="300.0" file="e_output.xml.xml"/>
  <inductionLoop id="e_479178723_1" lane="479178723_1" pos="0" period="300.0" file="e_output.xml.xml"/>
  <inductionLoop id="e_479178723_2" lane="479178723_2" pos="0" period="300.0" file="e_output.xml.xml"/>
  <inductionLoop id="e_13713756_0" lane="13713756_0" pos="0" period="300.0" file="e_output.xml.xml"/>
  <inductionLoop id="e_597084096_0" lane="597084096_0" pos="0" period="300.0" file="e_output.xml.xml"/>
  <inductionLoop id="e_597084096_1" lane="597084096_1" pos="0" period="300.0" file="e_output.xml.xml"/>
  <inductionLoop id="e_597084096_2" lane="597084096_2" pos="0" period="300.0" file="e_output.xml.xml"/>
  <inductionLoop id="e_597084096_3" lane="597084096_3" pos="0" period="300.0" file="e_output.xml.xml"/>
  <inductionLoop id="e_13713844#0_0" lane="13713844#0_0" pos="0" period="300.0" file="e_output.xml.xml"/>
  <inductionLoop id="e_479127844_0" lane="479127844_0" pos="0" period="300.0" file="e_output.xml.xml"/>
  <inductionLoop id="e_479127844_1" lane="479127844_1" pos="0" period="300.0" file="e_output.xml.xml"/>
  <inductionLoop id="e_479127844_2" lane="479127844_2" pos="0" period="300.0" file="e_output.xml.xml"/>
  <inductionLoop id="e_13713923#2_0" lane="13713923#2_0" pos="0" period="300.0" file="e_output.xml.xml"/>
  <inductionLoop id="e_479181124_0" lane="479181124_0" pos="0" period="300.0" file="e_output.xml.xml"/>
  <inductionLoop id="e_479181124_1" lane="479181124_1" pos="0" period="300.0" file="e_output.xml.xml"/>
  <inductionLoop id="e_479181124_2" lane="479181124_2" pos="0" period="300.0" file="e_output.xml.xml"/>
  <inductionLoop id="e_479181124_3" lane="479181124_3" pos="0" period="300.0" file="e_output.xml.xml"/>
  <inductionLoop id="e_13798158_0" lane="13798158_0" pos="0" period="300.0" file="e_output.xml.xml"/>
  <inductionLoop id="e_29036509_0" lane="29036509_0" pos="0" period="300.0" file="e_output.xml.xml"/>
  <inductionLoop id="e_29036509_1" lane="29036509_1" pos="0" period="300.0" file="e_output.xml.xml"/>
  <inductionLoop id="e_29036509_2" lane="29036509_2" pos="0" period="300.0" file="e_output.xml.xml"/>
  <inductionLoop id="e_13798242_0" lane="13798242_0" pos="0" period="300.0" file="e_output.xml.xml"/>
  <inductionLoop id="e_479365563_0" lane="479365563_0" pos="0" period="300.0" file="e_output.xml.xml"/>
  <inductionLoop id="e_479365563_1" lane="479365563_1" pos="0" period="300.0" file="e_output.xml.xml"/>
  <inductionLoop id="e_479365563_2" lane="479365563_2" pos="0" period="300.0" file="e_output.xml.xml"/>
  <inductionLoop id="e_13860802_0" lane="13860802_0" pos="0" period="300.0" file="e_output.xml.xml"/>
  <inductionLoop id="e_35006697_0" lane="35006697_0" pos="0" period="300.0" file="e_output.xml.xml"/>
  <inductionLoop id="e_35006697_1" lane="35006697_1" pos="0" period="300.0" file="e_output.xml.xml"/>
  <inductionLoop id="e_35006697_2" lane="35006697_2" pos="0" period="300.0" file="e_output.xml.xml"/>
  <inductionLoop id="e_35006697_3" lane="35006697_3" pos="0" period="300.0" file="e_output.xml.xml"/>
  <inductionLoop id="e_404635517_0" lane="404635517_0" pos="0" period="300.0" file="e_output.xml.xml"/>
  <inductionLoop id="e_404635517_1" lane="404635517_1" pos="0" period="300.0" file="e_output.xml.xml"/>
  <inductionLoop id="e_404635517_2" lane="404635517_2" pos="0" period="300.0" file="e_output.xml.xml"/>
  <inductionLoop id="e_139465323_0" lane="139465323_0" pos="0" period="300.0" file="e_output.xml.xml"/>
  <inductionLoop id="e_95984958#1_0" lane="95984958#1_0" pos="0" period="300.0" file="e_output.xml.xml"/>
  <inductionLoop id="e_95984958#1_1" lane="95984958#1_1" pos="0" period="300.0" file="e_output.xml.xml"/>
  <inductionLoop id="e_139455445_0" lane="139455445_0" pos="0" period="300.0" file="e_output.xml.xml"/>
  <inductionLoop id="e_140047503_0" lane="140047503_0" pos="0" period="300.0" file="e_output.xml.xml"/>
  <inductionLoop id="e_140047503_1" lane="140047503_1" pos="0" period="300.0" file="e_output.xml.xml"/>
  <inductionLoop id="e_415566508#0_0" lane="415566508#0_0" pos="0" period="300.0" file="e_output.xml.xml"/>
  <inductionLoop id="e_415566508#0_1" lane="415566508#0_1" pos="0" period="300.0" file="e_output.xml.xml"/>
  <inductionLoop id="e_140047506_0" lane="140047506_0" pos="0" period="300.0" file="e_output.xml.xml"/>
  <inductionLoop id="e_460988102_0" lane="460988102_0" pos="0" period="300.0" file="e_output.xml.xml"/>
  <inductionLoop id="e_460988102_1" lane="460988102_1" pos="0" period="300.0" file="e_output.xml.xml"/>
  <inductionLoop id="e_415566508#1_0" lane="415566508#1_0" pos="0" period="300.0" file="e_output.xml.xml"/>
  <inductionLoop id="e_415566508#1_1" lane="415566508#1_1" pos="0" period="300.0" file="e_output.xml.xml"/>
  <inductionLoop id="e_158900210_0" lane="158900210_0" pos="0" period="300.0" file="e_output.xml.xml"/>
  <inductionLoop id="e_398030861_0" lane="398030861_0" pos="0" period="300.0" file="e_output.xml.xml"/>
  <inductionLoop id="e_398030861_1" lane="398030861_1" pos="0" period="300.0" file="e_output.xml.xml"/>
  <inductionLoop id="e_398030861_2" lane="398030861_2" pos="0" period="300.0" file="e_output.xml.xml"/>
  <inductionLoop id="e_398030861_3" lane="398030861_3" pos="0" period="300.0" file="e_output.xml.xml"/>
  <inductionLoop id="e_597084093_0" lane="597084093_0" pos="0" period="300.0" file="e_output.xml.xml"/>
  <inductionLoop id="e_597084093_1" lane="597084093_1" pos="0" period="300.0" file="e_output.xml.xml"/>
  <inductionLoop id="e_597084093_2" lane="597084093_2" pos="0" period="300.0" file="e_output.xml.xml"/>
  <inductionLoop id="e_597084093_3" lane="597084093_3" pos="0" period="300.0" file="e_output.xml.xml"/>
  <inductionLoop id="e_474423812_0" lane="474423812_0" pos="0" period="300.0" file="e_output.xml.xml"/>
  <inductionLoop id="e_474423812_1" lane="474423812_1" pos="0" period="300.0" file="e_output.xml.xml"/>
  <inductionLoop id="e_474423812_2" lane="474423812_2" pos="0" period="300.0" file="e_output.xml.xml"/>
  <inductionLoop id="e_24790586_0" lane="24790586_0" pos="0" period="300.0" file="e_output.xml.xml"/>
  <inductionLoop id="e_4302771_0" lane="4302771_0" pos="0" period="300.0" file="e_output.xml.xml"/>
  <inductionLoop id="e_4302771_1" lane="4302771_1" pos="0" period="300.0" file="e_output.xml.xml"/>
  <inductionLoop id="e_474423787_0" lane="474423787_0" pos="0" period="300.0" file="e_output.xml.xml"/>
  <inductionLoop id="e_474423787_1" lane="474423787_1" pos="0" period="300.0" file="e_output.xml.xml"/>
  <inductionLoop id="e_474423787_2" lane="474423787_2" pos="0" period="300.0" file="e_output.xml.xml"/>
  <inductionLoop id="e_258900077_0" lane="258900077_0" pos="0" period="300.0" file="e_output.xml.xml"/>