<?xml version='1.0' encoding='UTF-8'?>
<additional xmlns="http://sumo.dlr.de/xsd/additional_file.xsd" xmlns:xsi="http://www.w3.org/2001/XMLSchema-instance">
  <calibrator id="ca_27293116#0_0" lane="27293116#0_0" pos="130.58" output="ca_27293116#0_0"/>
  <calibrator id="ca_99185260_0" lane="99185260_0" pos="114.92" output="ca_99185260_0"/>
  <calibrator id="ca_1174008830_0" lane="1174008830_0" pos="0.0" output="ca_1174008830_0"/>
  <calibrator id="ca_394028171_0" lane="394028171_0" pos="0.0" output="ca_394028171_0"/>
  <calibrator id="ca_1230014164_0" lane="1230014164_0" pos="32.26" output="ca_1230014164_0"/>
  <calibrator id="ca_485343201_0" lane="485343201_0" pos="779.18" output="ca_485343201_0"/>
  <calibrator id="ca_485343201_1" lane="485343201_1" pos="779.18" output="ca_485343201_1"/>
  <calibrator id="ca_95984936_0" lane="95984936_0" pos="195.76" output="ca_95984936_0"/>
  <calibrator id="ca_480083542_0" lane="480083542_0" pos="0.0" output="ca_480083542_0"/>
  <calibrator id="ca_1165499582_0" lane="1165499582_0" pos="0.0" output="ca_1165499582_0"/>
  <calibrator id="ca_1058622694_0" lane="1058622694_0" pos="0.0" output="ca_1058622694_0"/>
  <calibrator id="ca_1058622694_1" lane="1058622694_1" pos="0.0" output="ca_1058622694_1"/>
  <calibrator id="ca_35385034_0" lane="35385034_0" pos="0.0" output="ca_35385034_0"/>
  <calibrator id="ca_37856708#0_0" lane="37856708#0_0" pos="171.99" output="ca_37856708#0_0"/>
  <calibrator id="ca_386578590_0" lane="386578590_0" pos="153.03" output="ca_386578590_0"/>
  <calibrator id="ca_4259343_0" lane="4259343_0" pos="183.44" output="ca_4259343_0"/>
  <calibrator id="ca_95984945_0" lane="95984945_0" pos="171.15" output="ca_95984945_0"/>
  <calibrator id="ca_95841100_0" lane="95841100_0" pos="0.0" output="ca_95841100_0"/>
  <calibrator id="ca_480083544_0" lane="480083544_0" pos="79.81" output="ca_480083544_0"/>
  <calibrator id="ca_479198383_0" lane="479198383_0" pos="0.0" output="ca_479198383_0"/>
  <calibrator id="ca_1165499589_0" lane="1165499589_0" pos="0.0" output="ca_1165499589_0"/>
  <calibrator id="ca_1165499589_1" lane="1165499589_1" pos="0.0" output="ca_1165499589_1"/>
  <calibrator id="ca_1165499589_2" lane="1165499589_2" pos="0.0" output="ca_1165499589_2"/>
  <calibrator id="ca_13702954_0" lane="13702954_0" pos="199.24" output="ca_13702954_0"/>
  <calibrator id="ca_4259345_0" lane="4259345_0" pos="0.0" output="ca_4259345_0"/>
  <calibrator id="ca_4259345_1" lane="4259345_1" pos="0.0" output="ca_4259345_1"/>
  <calibrator id="ca_480084928_0" lane="480084928_0" pos="0.0" output="ca_480084928_0"/>
  <calibrator id="ca_839842702_0" lane="839842702_0" pos="1195.42" output="ca_839842702_0"/>
  <calibrator id="ca_839842702_1" lane="839842702_1" pos="1195.42" output="ca_839842702_1"/>
  <calibrator id="ca_95117793_0" lane="95117793_0" pos="161.3" output="ca_95117793_0"/>
  <calibrator id="ca_95117799_0" lane="95117799_0" pos="0.0" output="ca_95117799_0"/>
  <calibrator id="ca_479192134_0" lane="479192134_0" pos="220.31" output="ca_479192134_0"/>
  <calibrator id="ca_13712407_0" lane="13712407_0" pos="29.75" output="ca_13712407_0"/>
  <calibrator id="ca_63634695_0" lane="63634695_0" pos="0.0" output="ca_63634695_0"/>
  <calibrator id="ca_54375651#0_0" lane="54375651#0_0" pos="80.23" output="ca_54375651#0_0"/>
  <calibrator id="ca_1225499020_0" lane="1225499020_0" pos="57.33" output="ca_1225499020_0"/>
  <calibrator id="ca_479192137_0" lane="479192137_0" pos="11.66" output="ca_479192137_0"/>
  <calibrator id="ca_13713756_0" lane="13713756_0" pos="0.0" output="ca_13713756_0"/>
  <calibrator id="ca_835878391#1_0" lane="835878391#1_0" pos="0.0" output="ca_835878391#1_0"/>
  <calibrator id="ca_12389533_0" lane="12389533_0" pos="132.3" output="ca_12389533_0"/>
  <calibrator id="ca_97721366_0" lane="97721366_0" pos="0.0" output="ca_97721366_0"/>
  <calibrator id="ca_479127829_0" lane="479127829_0" pos="0.0" output="ca_479127829_0"/>
  <calibrator id="ca_63634696_0" lane="63634696_0" pos="141.74" output="ca_63634696_0"/>
  <calibrator id="ca_54375654_0" lane="54375654_0" pos="0.0" output="ca_54375654_0"/>
  <calibrator id="ca_1225499021_0" lane="1225499021_0" pos="0.0" output="ca_1225499021_0"/>
  <calibrator id="ca_258900077_0" lane="258900077_0" pos="87.72" output="ca_258900077_0"/>
  <calibrator id="ca_97721399_0" lane="97721399_0" pos="0.0" output="ca_97721399_0"/>
  <calibrator id="ca_258900080#1_0" lane="258900080#1_0" pos="0.0" output="ca_258900080#1_0"/>
  <calibrator id="ca_258900080#1_1" lane="258900080#1_1" pos="0.0" output="ca_258900080#1_1"/>
  <calibrator id="ca_12543140_0" lane="12543140_0" pos="0.0" output="ca_12543140_0"/>
  <calibrator id="ca_54379491_0" lane="54379491_0" pos="0.0" output="ca_54379491_0"/>
  <calibrator id="ca_12297710#0_0" lane="12297710#0_0" pos="62.7" output="ca_12297710#0_0"/>
  <calibrator id="ca_12297710#0_1" lane="12297710#0_1" pos="62.7" output="ca_12297710#0_1"/>
  <calibrator id="ca_13713844#0_0" lane="13713844#0_0" pos="37.63" output="ca_13713844#0_0"/>
  <calibrator id="ca_398030863_0" lane="398030863_0" pos="39.24" output="ca_398030863_0"/>
  <calibrator id="ca_54379553_0" lane="54379553_0" pos="75.05" output="ca_54379553_0"/>
  <calibrator id="ca_13713923#2_0" lane="13713923#2_0" pos="0.0" output="ca_13713923#2_0"/>
  <calibrator id="ca_484778540_0" lane="484778540_0" pos="148.29" output="ca_484778540_0"/>
  <calibrator id="ca_1174689800_0" lane="1174689800_0" pos="35.82" output="ca_1174689800_0"/>
  <calibrator id="ca_498604771_0" lane="498604771_0" pos="36.01" output="ca_498604771_0"/>
  <calibrator id="ca_1174689806_0" lane="1174689806_0" pos="42.29" output="ca_1174689806_0"/>
  <calibrator id="ca_12543151_0" lane="12543151_0" pos="280.14" output="ca_12543151_0"/>
  <calibrator id="ca_139455445_0" lane="139455445_0" pos="0.0" output="ca_139455445_0"/>
  <calibrator id="ca_480148049_0" lane="480148049_0" pos="0.0" output="ca_480148049_0"/>
  <calibrator id="ca_98835987_0" lane="98835987_0" pos="0.0" output="ca_98835987_0"/>
  <calibrator id="ca_4256484_0" lane="4256484_0" pos="0.0" output="ca_4256484_0"/>
  <calibrator id="ca_4256484_1" lane="4256484_1" pos="0.0" output="ca_4256484_1"/>
  <calibrator id="ca_29036536_0" lane="29036536_0" pos="306.6" output="ca_29036536_0"/>
  <calibrator id="ca_12543154_0" lane="12543154_0" pos="0.0" output="ca_12543154_0"/>
  <calibrator id="ca_12298305_0" lane="12298305_0" pos="694.52" output="ca_12298305_0"/>
  <calibrator id="ca_13798158_0" lane="13798158_0" pos="170.59" output="ca_13798158_0"/>
  <calibrator id="ca_1174689807_0" lane="1174689807_0" pos="0.0" output="ca_1174689807_0"/>
  <calibrator id="ca_158900210_0" lane="158900210_0" pos="0.0" output="ca_158900210_0"/>
  <calibrator id="ca_106586052_0" lane="106586052_0" pos="0.0" output="ca_106586052_0"/>
  <calibrator id="ca_99185124_0" lane="99185124_0" pos="0.0" output="ca_99185124_0"/>
  <calibrator id="ca_30911274#0_0" lane="30911274#0_0" pos="177.33" output="ca_30911274#0_0"/>
  <calibrator id="ca_1174008829_0" lane="1174008829_0" pos="0.0" output="ca_1174008829_0"/>
  <calibrator id="ca_1174008829_1" lane="1174008829_1" pos="0.0" output="ca_1174008829_1"/>
  <calibrator id="ca_597084091_0" lane="597084091_0" pos="91.38" output="ca_597084091_0"/>
  <calibrator id="ca_597084091_1" lane="597084091_1" pos="91.38" output="ca_597084091_1"/>
  <calibrator id="ca_597084091_2" lane="597084091_2" pos="91.38" output="ca_597084091_2"/>
  <calibrator id="ca_12543217_0" lane="12543217_0" pos="50.59" output="ca_12543217_0"/>
  <calibrator id="ca_13798242_0" lane="13798242_0" pos="119.32" output="ca_13798242_0"/>
  <calibrator id="ca_95984899_0" lane="95984899_0" pos="0.0" output="ca_95984899_0"/>
  <calibrator id="ca_13860802_0" lane="13860802_0" pos="0.0" output="ca_13860802_0"/>
  <calibrator id="ca_118670828#1_0" lane="118670828#1_0" pos="0.0" output="ca_118670828#1_0"/>
  <calibrator id="ca_54509443_0" lane="54509443_0" pos="105.75" output="ca_54509443_0"/>
  <calibrator id="ca_173072184_0" lane="173072184_0" pos="0.0" output="ca_173072184_0"/>
  <calibrator id="ca_480083543_0" lane="480083543_0" pos="10.24" output="ca_480083543_0"/>
  <calibrator id="ca_1177120141_0" lane="1177120141_0" pos="36.15" output="ca_1177120141_0"/>
  <calibrator id="ca_99185139_0" lane="99185139_0" pos="81.8" output="ca_99185139_0"/>
  <calibrator id="ca_474423823_0" lane="474423823_0" pos="0.0" output="ca_474423823_0"/>
  <calibrator id="ca_474423823_1" lane="474423823_1" pos="0.0" output="ca_474423823_1"/>
  <calibrator id="ca_4256485_0" lane="4256485_0" pos="205.08" output="ca_4256485_0"/>
  <calibrator id="ca_1167578689_0" lane="1167578689_0" pos="0.0" output="ca_1167578689_0"/>
  <calibrator id="ca_1165239238_0" lane="1165239238_0" pos="0.0" output="ca_1165239238_0"/>
  <calibrator id="ca_1165239238_1" lane="1165239238_1" pos="0.0" output="ca_1165239238_1"/>
  <calibrator id="ca_12543642_0" lane="12543642_0" pos="0.0" output="ca_12543642_0"/>
  <calibrator id="ca_139465323_0" lane="139465323_0" pos="155.92" output="ca_139465323_0"/>
  <calibrator id="ca_27292207#0_0" lane="27292207#0_0" pos="113.0" output="ca_27292207#0_0"/>
  <calibrator id="ca_99185171#1_0" lane="99185171#1_0" pos="0.0" output="ca_99185171#1_0"/>
  <calibrator id="ca_34712768#1_0" lane="34712768#1_0" pos="0.0" output="ca_34712768#1_0"/>
  <calibrator id="ca_4259341_0" lane="4259341_0" pos="57.13" output="ca_4259341_0"/>
  <calibrator id="ca_4259341_1" lane="4259341_1" pos="57.13" output="ca_4259341_1"/>
  <calibrator id="ca_12543749_0" lane="12543749_0" pos="0.0" output="ca_12543749_0"/>
  <calibrator id="ca_63202743#1_0" lane="63202743#1_0" pos="0.0" output="ca_63202743#1_0"/>
  <calibrator id="ca_480148036_0" lane="480148036_0" pos="40.75" output="ca_480148036_0"/>
  <inductionLoop id="e_105482347_0" lane="105482347_0" pos="0" period="300.0" file="e_105482347_0.xml"/>
  <inductionLoop id="e_105482347_1" lane="105482347_1" pos="0" period="300.0" file="e_105482347_1.xml"/>
  <inductionLoop id="e_105482347_2" lane="105482347_2" pos="0" period="300.0" file="e_105482347_2.xml"/>
  <inductionLoop id="e_4256485_0" lane="4256485_0" pos="0" period="300.0" file="e_4256485_0.xml"/>
  <inductionLoop id="e_479127846_0" lane="479127846_0" pos="0" period="300.0" file="e_479127846_0.xml"/>
  <inductionLoop id="e_479127846_1" lane="479127846_1" pos="0" period="300.0" file="e_479127846_1.xml"/>
  <inductionLoop id="e_479127846_2" lane="479127846_2" pos="0" period="300.0" file="e_479127846_2.xml"/>
  <inductionLoop id="e_479127846_3" lane="479127846_3" pos="0" period="300.0" file="e_479127846_3.xml"/>
  <inductionLoop id="e_479127846_4" lane="479127846_4" pos="0" period="300.0" file="e_479127846_4.xml"/>
  <inductionLoop id="e_95374587_0" lane="95374587_0" pos="0" period="300.0" file="e_95374587_0.xml"/>
  <inductionLoop id="e_95374587_1" lane="95374587_1" pos="0" period="300.0" file="e_95374587_1.xml"/>
  <inductionLoop id="e_98825971_0" lane="98825971_0" pos="0" period="300.0" file="e_98825971_0.xml"/>
  <inductionLoop id="e_1058622694_0" lane="1058622694_0" pos="0" period="300.0" file="e_1058622694_0.xml"/>
  <inductionLoop id="e_1058622694_1" lane="1058622694_1" pos="0" period="300.0" file="e_1058622694_1.xml"/>
  <inductionLoop id="e_106441015_0" lane="106441015_0" pos="0" period="300.0" file="e_106441015_0.xml"/>
  <inductionLoop id="e_106441015_1" lane="106441015_1" pos="0" period="300.0" file="e_106441015_1.xml"/>
  <inductionLoop id="e_106441015_2" lane="106441015_2" pos="0" period="300.0" file="e_106441015_2.xml"/>
  <inductionLoop id="e_386578590_0" lane="386578590_0" pos="0" period="300.0" file="e_386578590_0.xml"/>
  <inductionLoop id="e_106586052_0" lane="106586052_0" pos="0" period="300.0" file="e_106586052_0.xml"/>
  <inductionLoop id="e_95841156_0" lane="95841156_0" pos="0" period="300.0" file="e_95841156_0.xml"/>
  <inductionLoop id="e_95841156_1" lane="95841156_1" pos="0" period="300.0" file="e_95841156_1.xml"/>
  <inductionLoop id="e_95841156_2" lane="95841156_2" pos="0" period="300.0" file="e_95841156_2.xml"/>
  <inductionLoop id="e_95841156_3" lane="95841156_3" pos="0" period="300.0" file="e_95841156_3.xml"/>
  <inductionLoop id="e_1165239239_0" lane="1165239239_0" pos="0" period="300.0" file="e_1165239239_0.xml"/>
  <inductionLoop id="e_1165239239_1" lane="1165239239_1" pos="0" period="300.0" file="e_1165239239_1.xml"/>
  <inductionLoop id="e_1165239239_2" lane="1165239239_2" pos="0" period="300.0" file="e_1165239239_2.xml"/>
  <inductionLoop id="e_1096803816_0" lane="1096803816_0" pos="0" period="300.0" file="e_1096803816_0.xml"/>
  <inductionLoop id="e_1096803816_1" lane="1096803816_1" pos="0" period="300.0" file="e_1096803816_1.xml"/>
  <inductionLoop id="e_839842701_0" lane="839842701_0" pos="0" period="300.0" file="e_839842701_0.xml"/>
  <inductionLoop id="e_460986048_0" lane="460986048_0" pos="0" period="300.0" file="e_460986048_0.xml"/>
  <inductionLoop id="e_460986048_1" lane="460986048_1" pos="0" period="300.0" file="e_460986048_1.xml"/>
  <inductionLoop id="e_460986048_2" lane="460986048_2" pos="0" period="300.0" file="e_460986048_2.xml"/>
  <inductionLoop id="e_1165239234_0" lane="1165239234_0" pos="0" period="300.0" file="e_1165239234_0.xml"/>
  <inductionLoop id="e_24790621_0" lane="24790621_0" pos="0" period="300.0" file="e_24790621_0.xml"/>
  <inductionLoop id="e_24790621_1" lane="24790621_1" pos="0" period="300.0" file="e_24790621_1.xml"/>
  <inductionLoop id="e_1165263977_0" lane="1165263977_0" pos="0" period="300.0" file="e_1165263977_0.xml"/>
  <inductionLoop id="e_1165263977_1" lane="1165263977_1" pos="0" period="300.0" file="e_1165263977_1.xml"/>
  <inductionLoop id="e_1165239236_0" lane="1165239236_0" pos="0" period="300.0" file="e_1165239236_0.xml"/>
  <inductionLoop id="e_1165239236_1" lane="1165239236_1" pos="0" period="300.0" file="e_1165239236_1.xml"/>
  <inductionLoop id="e_99185260_0" lane="99185260_0" pos="0" period="300.0" file="e_99185260_0.xml"/>
  <inductionLoop id="e_474423785_0" lane="474423785_0" pos="0" period="300.0" file="e_474423785_0.xml"/>
  <inductionLoop id="e_474423785_1" lane="474423785_1" pos="0" period="300.0" file="e_474423785_1.xml"/>
  <inductionLoop id="e_474423785_2" lane="474423785_2" pos="0" period="300.0" file="e_474423785_2.xml"/>
  <inductionLoop id="e_95841103_0" lane="95841103_0" pos="0" period="300.0" file="e_95841103_0.xml"/>
  <inductionLoop id="e_95841103_1" lane="95841103_1" pos="0" period="300.0" file="e_95841103_1.xml"/>
  <inductionLoop id="e_95841103_2" lane="95841103_2" pos="0" period="300.0" file="e_95841103_2.xml"/>
  <inductionLoop id="e_1165239238_0" lane="1165239238_0" pos="0" period="300.0" file="e_1165239238_0.xml"/>
  <inductionLoop id="e_1165239238_1" lane="1165239238_1" pos="0" period="300.0" file="e_1165239238_1.xml"/>
  <inductionLoop id="e_1165240362_0" lane="1165240362_0" pos="0" period="300.0" file="e_1165240362_0.xml"/>
  <inductionLoop id="e_1165240362_1" lane="1165240362_1" pos="0" period="300.0" file="e_1165240362_1.xml"/>
  <inductionLoop id="e_1165240362_2" lane="1165240362_2" pos="0" period="300.0" file="e_1165240362_2.xml"/>
  <inductionLoop id="e_1165240364_0" lane="1165240364_0" pos="0" period="300.0" file="e_1165240364_0.xml"/>
  <inductionLoop id="e_1165240364_1" lane="1165240364_1" pos="0" period="300.0" file="e_1165240364_1.xml"/>
  <inductionLoop id="e_1165240364_2" lane="1165240364_2" pos="0" period="300.0" file="e_1165240364_2.xml"/>
  <inductionLoop id="e_1165240366_0" lane="1165240366_0" pos="0" period="300.0" file="e_1165240366_0.xml"/>
  <inductionLoop id="e_1165240366_1" lane="1165240366_1" pos="0" period="300.0" file="e_1165240366_1.xml"/>
  <inductionLoop id="e_95117793_0" lane="95117793_0" pos="0" period="300.0" file="e_95117793_0.xml"/>
  <inductionLoop id="e_1165240369_0" lane="1165240369_0" pos="0" period="300.0" file="e_1165240369_0.xml"/>
  <inductionLoop id="e_1165240369_1" lane="1165240369_1" pos="0" period="300.0" file="e_1165240369_1.xml"/>
  <inductionLoop id="e_1165240369_2" lane="1165240369_2" pos="0" period="300.0" file="e_1165240369_2.xml"/>
  <inductionLoop id="e_1165499578_0" lane="1165499578_0" pos="0" period="300.0" file="e_1165499578_0.xml"/>
  <inductionLoop id="e_1165499578_1" lane="1165499578_1" pos="0" period="300.0" file="e_1165499578_1.xml"/>
  <inductionLoop id="e_1165499578_2" lane="1165499578_2" pos="0" period="300.0" file="e_1165499578_2.xml"/>
  <inductionLoop id="e_1165499578_3" lane="1165499578_3" pos="0" period="300.0" file="e_1165499578_3.xml"/>
  <inductionLoop id="e_1165499582_0" lane="1165499582_0" pos="0" period="300.0" file="e_1165499582_0.xml"/>
  <inductionLoop id="e_479187303_0" lane="479187303_0" pos="0" period="300.0" file="e_479187303_0.xml"/>
  <inductionLoop id="e_479187303_1" lane="479187303_1" pos="0" period="300.0" file="e_479187303_1.xml"/>
  <inductionLoop id="e_479187303_2" lane="479187303_2" pos="0" period="300.0" file="e_479187303_2.xml"/>
  <inductionLoop id="e_479187303_3" lane="479187303_3" pos="0" period="300.0" file="e_479187303_3.xml"/>
  <inductionLoop id="e_1165499589_0" lane="1165499589_0" pos="0" period="300.0" file="e_1165499589_0.xml"/>
  <inductionLoop id="e_1165499589_1" lane="1165499589_1" pos="0" period="300.0" file="e_1165499589_1.xml"/>
  <inductionLoop id="e_1165499589_2" lane="1165499589_2" pos="0" period="300.0" file="e_1165499589_2.xml"/>
  <inductionLoop id="e_1165499590#1_0" lane="1165499590#1_0" pos="0" period="300.0" file="e_1165499590#1_0.xml"/>
  <inductionLoop id="e_1165499590#1_1" lane="1165499590#1_1" pos="0" period="300.0" file="e_1165499590#1_1.xml"/>
  <inductionLoop id="e_24790552_0" lane="24790552_0" pos="0" period="300.0" file="e_24790552_0.xml"/>
  <inductionLoop id="e_1174689806_0" lane="1174689806_0" pos="0" period="300.0" file="e_1174689806_0.xml"/>
  <inductionLoop id="e_95117812#1_0" lane="95117812#1_0" pos="0" period="300.0" file="e_95117812#1_0.xml"/>
  <inductionLoop id="e_95117812#1_1" lane="95117812#1_1" pos="0" period="300.0" file="e_95117812#1_1.xml"/>
  <inductionLoop id="e_1165499593_0" lane="1165499593_0" pos="0" period="300.0" file="e_1165499593_0.xml"/>
  <inductionLoop id="e_1165499593_1" lane="1165499593_1" pos="0" period="300.0" file="e_1165499593_1.xml"/>
  <inductionLoop id="e_1165499593_2" lane="1165499593_2" pos="0" period="300.0" file="e_1165499593_2.xml"/>
  <inductionLoop id="e_1165499594_0" lane="1165499594_0" pos="0" period="300.0" file="e_1165499594_0.xml"/>
  <inductionLoop id="e_1165499594_1" lane="1165499594_1" pos="0" period="300.0" file="e_1165499594_1.xml"/>
  <inductionLoop id="e_1165499594_2" lane="1165499594_2" pos="0" period="300.0" file="e_1165499594_2.xml"/>
  <inductionLoop id="e_139455435_0" lane="139455435_0" pos="0" period="300.0" file="e_139455435_0.xml"/>
  <inductionLoop id="e_139455435_1" lane="139455435_1" pos="0" period="300.0" file="e_139455435_1.xml"/>
  <inductionLoop id="e_95984945_0" lane="95984945_0" pos="0" period="300.0" file="e_95984945_0.xml"/>
  <inductionLoop id="e_1165499595_0" lane="1165499595_0" pos="0" period="300.0" file="e_1165499595_0.xml"/>
  <inductionLoop id="e_1165499595_1" lane="1165499595_1" pos="0" period="300.0" file="e_1165499595_1.xml"/>
  <inductionLoop id="e_1165499595_2" lane="1165499595_2" pos="0" period="300.0" file="e_1165499595_2.xml"/>
  <inductionLoop id="e_139455457_0" lane="139455457_0" pos="0" period="300.0" file="e_139455457_0.xml"/>
  <inductionLoop id="e_139455457_1" lane="139455457_1" pos="0" period="300.0" file="e_139455457_1.xml"/>
  <inductionLoop id="e_95984936_0" lane="95984936_0" pos="0" period="300.0" file="e_95984936_0.xml"/>
  <inductionLoop id="e_1165499596_0" lane="1165499596_0" pos="0" period="300.0" file="e_1165499596_0.xml"/>
  <inductionLoop id="e_1165499596_1" lane="1165499596_1" pos="0" period="300.0" file="e_1165499596_1.xml"/>
  <inductionLoop id="e_1165499596_2" lane="1165499596_2" pos="0" period="300.0" file="e_1165499596_2.xml"/>
  <inductionLoop id="e_1165499596_3" lane="1165499596_3" pos="0" period="300.0" file="e_1165499596_3.xml"/>
  <inductionLoop id="e_1165499597_0" lane="1165499597_0" pos="0" period="300.0" file="e_1165499597_0.xml"/>
  <inductionLoop id="e_1165499597_1" lane="1165499597_1" pos="0" period="300.0" file="e_1165499597_1.xml"/>
  <inductionLoop id="e_1165499597_2" lane="1165499597_2" pos="0" period="300.0" file="e_1165499597_2.xml"/>
  <inductionLoop id="e_54375651#0_0" lane="54375651#0_0" pos="0" period="300.0" file="e_54375651#0_0.xml"/>
  <inductionLoop id="e_1165499598_0" lane="1165499598_0" pos="0" period="300.0" file="e_1165499598_0.xml"/>
  <inductionLoop id="e_1165499598_1" lane="1165499598_1" pos="0" period="300.0" file="e_1165499598_1.xml"/>
  <inductionLoop id="e_1165499598_2" lane="1165499598_2" pos="0" period="300.0" file="e_1165499598_2.xml"/>
  <inductionLoop id="e_1165499598_3" lane="1165499598_3" pos="0" period="300.0" file="e_1165499598_3.xml"/>
  <inductionLoop id="e_1167578689_0" lane="1167578689_0" pos="0" period="300.0" file="e_1167578689_0.xml"/>
  <inductionLoop id="e_479365561_0" lane="479365561_0" pos="0" period="300.0" file="e_479365561_0.xml"/>
  <inductionLoop id="e_479365561_1" lane="479365561_1" pos="0" period="300.0" file="e_479365561_1.xml"/>
  <inductionLoop id="e_479365561_2" lane="479365561_2" pos="0" period="300.0" file="e_479365561_2.xml"/>
  <inductionLoop id="e_479365561_3" lane="479365561_3" pos="0" period="300.0" file="e_479365561_3.xml"/>
  <inductionLoop id="e_1174008829_0" lane="1174008829_0" pos="0" period="300.0" file="e_1174008829_0.xml"/>
  <inductionLoop id="e_1174008829_1" lane="1174008829_1" pos="0" period="300.0" file="e_1174008829_1.xml"/>
  <inductionLoop id="e_478886779_0" lane="478886779_0" pos="0" period="300.0" file="e_478886779_0.xml"/>
  <inductionLoop id="e_478886779_1" lane="478886779_1" pos="0" period="300.0" file="e_478886779_1.xml"/>
  <inductionLoop id="e_478886779_2" lane="478886779_2" pos="0" period="300.0" file="e_478886779_2.xml"/>
  <inductionLoop id="e_478886779_3" lane="478886779_3" pos="0" period="300.0" file="e_478886779_3.xml"/>
  <inductionLoop id="e_478886779_4" lane="478886779_4" pos="0" period="300.0" file="e_478886779_4.xml"/>
  <inductionLoop id="e_1174008830_0" lane="1174008830_0" pos="0" period="300.0" file="e_1174008830_0.xml"/>
  <inductionLoop id="e_345566831_0" lane="345566831_0" pos="0" period="300.0" file="e_345566831_0.xml"/>
  <inductionLoop id="e_345566831_1" lane="345566831_1" pos="0" period="300.0" file="e_345566831_1.xml"/>
  <inductionLoop id="e_345566831_2" lane="345566831_2" pos="0" period="300.0" file="e_345566831_2.xml"/>
  <inductionLoop id="e_345566831_3" lane="345566831_3" pos="0" period="300.0" file="e_345566831_3.xml"/>
  <inductionLoop id="e_1174461335_0" lane="1174461335_0" pos="0" period="300.0" file="e_1174461335_0.xml"/>
  <inductionLoop id="e_1174461335_1" lane="1174461335_1" pos="0" period="300.0" file="e_1174461335_1.xml"/>
  <inductionLoop id="e_1174461335_2" lane="1174461335_2" pos="0" period="300.0" file="e_1174461335_2.xml"/>
  <inductionLoop id="e_1174461335_3" lane="1174461335_3" pos="0" period="300.0" file="e_1174461335_3.xml"/>
  <inductionLoop id="e_1174689800_0" lane="1174689800_0" pos="0" period="300.0" file="e_1174689800_0.xml"/>
  <inductionLoop id="e_139455439_0" lane="139455439_0" pos="0" period="300.0" file="e_139455439_0.xml"/>
  <inductionLoop id="e_139455439_1" lane="139455439_1" pos="0" period="300.0" file="e_139455439_1.xml"/>
  <inductionLoop id="e_1174689807_0" lane="1174689807_0" pos="0" period="300.0" file="e_1174689807_0.xml"/>
  <inductionLoop id="e_95117802_0" lane="95117802_0" pos="0" period="300.0" file="e_95117802_0.xml"/>
  <inductionLoop id="e_95117802_1" lane="95117802_1" pos="0" period="300.0" file="e_95117802_1.xml"/>
  <inductionLoop id="e_95117802_2" lane="95117802_2" pos="0" period="300.0" file="e_95117802_2.xml"/>
  <inductionLoop id="e_1177120141_0" lane="1177120141_0" pos="0" period="300.0" file="e_1177120141_0.xml"/>
  <inductionLoop id="e_29036532_0" lane="29036532_0" pos="0" period="300.0" file="e_29036532_0.xml"/>
  <inductionLoop id="e_29036532_1" lane="29036532_1" pos="0" period="300.0" file="e_29036532_1.xml"/>
  <inductionLoop id="e_29036532_2" lane="29036532_2" pos="0" period="300.0" file="e_29036532_2.xml"/>
  <inductionLoop id="e_29036532_3" lane="29036532_3" pos="0" period="300.0" file="e_29036532_3.xml"/>
  <inductionLoop id="e_118670828#1_0" lane="118670828#1_0" pos="0" period="300.0" file="e_118670828#1_0.xml"/>
  <inductionLoop id="e_480146192_0" lane="480146192_0" pos="0" period="300.0" file="e_480146192_0.xml"/>
  <inductionLoop id="e_480146192_1" lane="480146192_1" pos="0" period="300.0" file="e_480146192_1.xml"/>
  <inductionLoop id="e_480146192_2" lane="480146192_2" pos="0" period="300.0" file="e_480146192_2.xml"/>
  <inductionLoop id="e_480146192_3" lane="480146192_3" pos="0" period="300.0" file="e_480146192_3.xml"/>
  <inductionLoop id="e_1187721765_0" lane="1187721765_0" pos="0" period="300.0" file="e_1187721765_0.xml"/>
  <inductionLoop id="e_1187721765_1" lane="1187721765_1" pos="0" period="300.0" file="e_1187721765_1.xml"/>
  <inductionLoop id="e_1187721765_2" lane="1187721765_2" pos="0" period="300.0" file="e_1187721765_2.xml"/>
  <inductionLoop id="e_1187721765_3" lane="1187721765_3" pos="0" period="300.0" file="e_1187721765_3.xml"/>
  <inductionLoop id="e_480148045_0" lane="480148045_0" pos="0" period="300.0" file="e_480148045_0.xml"/>
  <inductionLoop id="e_480148045_1" lane="480148045_1" pos="0" period="300.0" file="e_480148045_1.xml"/>
  <inductionLoop id="e_480148045_2" lane="480148045_2" pos="0" period="300.0" file="e_480148045_2.xml"/>
  <inductionLoop id="e_484778540_0" lane="484778540_0" pos="0" period="300.0" file="e_484778540_0.xml"/>
  <inductionLoop id="e_1187721767_0" lane="1187721767_0" pos="0" period="300.0" file="e_1187721767_0.xml"/>
  <inductionLoop id="e_1187721767_1" lane="1187721767_1" pos="0" period="300.0" file="e_1187721767_1.xml"/>
  <inductionLoop id="e_1187721767_2" lane="1187721767_2" pos="0" period="300.0" file="e_1187721767_2.xml"/>
  <inductionLoop id="e_1187721767_3" lane="1187721767_3" pos="0" period="300.0" file="e_1187721767_3.xml"/>
  <inductionLoop id="e_1187721767_4" lane="1187721767_4" pos="0" period="300.0" file="e_1187721767_4.xml"/>
  <inductionLoop id="e_1225499020_0" lane="1225499020_0" pos="0" period="300.0" file="e_1225499020_0.xml"/>
  <inductionLoop id="e_460986037_0" lane="460986037_0" pos="0" period="300.0" file="e_460986037_0.xml"/>
  <inductionLoop id="e_460986037_1" lane="460986037_1" pos="0" period="300.0" file="e_460986037_1.xml"/>
  <inductionLoop id="e_460986037_2" lane="460986037_2" pos="0" period="300.0" file="e_460986037_2.xml"/>
  <inductionLoop id="e_1225499021_0" lane="1225499021_0" pos="0" period="300.0" file="e_1225499021_0.xml"/>
  <inductionLoop id="e_12297710#0_0" lane="12297710#0_0" pos="0" period="300.0" file="e_12297710#0_0.xml"/>
  <inductionLoop id="e_12297710#0_1" lane="12297710#0_1" pos="0" period="300.0" file="e_12297710#0_1.xml"/>
  <inductionLoop id="e_35539786#0_0" lane="35539786#0_0" pos="0" period="300.0" file="e_35539786#0_0.xml"/>
  <inductionLoop id="e_35539786#0_1" lane="35539786#0_1" pos="0" period="300.0" file="e_35539786#0_1.xml"/>
  <inductionLoop id="e_35539786#0_2" lane="35539786#0_2" pos="0" period="300.0" file="e_35539786#0_2.xml"/>
  <inductionLoop id="e_12298305_0" lane="12298305_0" pos="0" period="300.0" file="e_12298305_0.xml"/>
  <inductionLoop id="e_479165072_0" lane="479165072_0" pos="0" period="300.0" file="e_479165072_0.xml"/>
  <inductionLoop id="e_479165072_1" lane="479165072_1" pos="0" period="300.0" file="e_479165072_1.xml"/>
  <inductionLoop id="e_479165072_2" lane="479165072_2" pos="0" period="300.0" file="e_479165072_2.xml"/>
  <inductionLoop id="e_54379553_0" lane="54379553_0" pos="0" period="300.0" file="e_54379553_0.xml"/>
  <inductionLoop id="e_95117787_0" lane="95117787_0" pos="0" period="300.0" file="e_95117787_0.xml"/>
  <inductionLoop id="e_95117787_1" lane="95117787_1" pos="0" period="300.0" file="e_95117787_1.xml"/>
  <inductionLoop id="e_1230014164_0" lane="1230014164_0" pos="0" period="300.0" file="e_1230014164_0.xml"/>
  <inductionLoop id="e_95362523_0" lane="95362523_0" pos="0" period="300.0" file="e_95362523_0.xml"/>
  <inductionLoop id="e_95362523_1" lane="95362523_1" pos="0" period="300.0" file="e_95362523_1.xml"/>
  <inductionLoop id="e_12389533_0" lane="12389533_0" pos="0" period="300.0" file="e_12389533_0.xml"/>
  <inductionLoop id="e_453274475_0" lane="453274475_0" pos="0" period="300.0" file="e_453274475_0.xml"/>
  <inductionLoop id="e_453274475_1" lane="453274475_1" pos="0" period="300.0" file="e_453274475_1.xml"/>
  <inductionLoop id="e_453274475_2" lane="453274475_2" pos="0" period="300.0" file="e_453274475_2.xml"/>
  <inductionLoop id="e_12543140_0" lane="12543140_0" pos="0" period="300.0" file="e_12543140_0.xml"/>
  <inductionLoop id="e_497153702_0" lane="497153702_0" pos="0" period="300.0" file="e_497153702_0.xml"/>
  <inductionLoop id="e_497153702_1" lane="497153702_1" pos="0" period="300.0" file="e_497153702_1.xml"/>
  <inductionLoop id="e_497153702_2" lane="497153702_2" pos="0" period="300.0" file="e_497153702_2.xml"/>
  <inductionLoop id="e_497153702_3" lane="497153702_3" pos="0" period="300.0" file="e_497153702_3.xml"/>
  <inductionLoop id="e_12543151_0" lane="12543151_0" pos="0" period="300.0" file="e_12543151_0.xml"/>
  <inductionLoop id="e_35446606_0" lane="35446606_0" pos="0" period="300.0" file="e_35446606_0.xml"/>
  <inductionLoop id="e_35446606_1" lane="35446606_1" pos="0" period="300.0" file="e_35446606_1.xml"/>
  <inductionLoop id="e_35446606_2" lane="35446606_2" pos="0" period="300.0" file="e_35446606_2.xml"/>
  <inductionLoop id="e_35446606_3" lane="35446606_3" pos="0" period="300.0" file="e_35446606_3.xml"/>
  <inductionLoop id="e_12543154_0" lane="12543154_0" pos="0" period="300.0" file="e_12543154_0.xml"/>