<?xml version="1.0" encoding="UTF-8"?>

<!-- generated on 2024-02-21 14:38:14 by Eclipse SUMO netconvert Version 1.19.0
<configuration xmlns:xsi="http://www.w3.org/2001/XMLSchema-instance" xsi:noNamespaceSchemaLocation="http://sumo.dlr.de/xsd/netconvertConfiguration.xsd">

    <input>
        <sumo-net-file value="networks/base.net.xml"/>
    </input>

    <output>
        <output-file value="networks/filter_by_edge_2024-02-21-14-37-55.net.xml"/>
        <output.street-names value="true"/>
        <output.original-names value="true"/>
    </output>

    <processing>
        <geometry.min-radius.fix.railways value="false"/>
        <geometry.max-grade.fix value="false"/>
        <offset.disable-normalization value="true"/>
        <lefthand value="0"/>
    </processing>

    <edge_removal>
        <keep-edges.input-file value="network_configs\edges_2024-02-21-14-37-55.txt"/>
        <keep-edges.components value="1"/>
    </edge_removal>

    <junctions>
        <no-turnarounds value="true"/>
        <junctions.corner-detail value="5"/>
        <junctions.limit-turn-speed value="5.50"/>
        <rectangular-lane-cut value="0"/>
    </junctions>

    <pedestrian>
        <walkingareas value="0"/>
    </pedestrian>

    <random_number>
        <random value="false"/>
        <seed value="42"/>
    </random_number>

</configuration>
-->

<net version="1.16" junctionCornerDetail="5" limitTurnSpeed="5.50" xmlns:xsi="http://www.w3.org/2001/XMLSchema-instance" xsi:noNamespaceSchemaLocation="http://sumo.dlr.de/xsd/net_file.xsd">

    <location netOffset="-528770.47,-4550941.69" convBoundary="643.61,133.64,7013.67,7302.75" origBoundary="-8.675949,41.059699,-8.491512,41.238844" projParameter="+proj=utm +zone=29 +ellps=WGS84 +datum=WGS84 +units=m +no_defs"/>

    <type id="highway.motorway" priority="14" numLanes="2" speed="39.44" allow="private emergency authority army vip passenger hov taxi bus coach delivery truck trailer motorcycle evehicle custom1 custom2" oneway="1"/>
    <type id="highway.motorway_link" priority="9" numLanes="1" speed="22.22" allow="private emergency authority army vip passenger hov taxi bus coach delivery truck trailer motorcycle evehicle custom1 custom2" oneway="1"/>

    <edge id=":10019270299_0" function="internal">
        <lane id=":10019270299_0_0" index="0" allow="private emergency authority army vip passenger hov taxi bus coach delivery truck trailer motorcycle evehicle custom1 custom2" speed="25.00" length="0.30" shape="6693.99,2882.16 6693.80,2882.40"/>
        <lane id=":10019270299_0_1" index="1" allow="private emergency authority army vip passenger hov taxi bus coach delivery truck trailer motorcycle evehicle custom1 custom2" speed="25.00" length="0.30" shape="6691.50,2880.14 6691.31,2880.38"/>
    </edge>
    <edge id=":10838152692_0" function="internal">
        <lane id=":10838152692_0_0" index="0" allow="private emergency authority army vip passenger hov taxi bus coach delivery truck trailer motorcycle evehicle custom1 custom2" speed="22.22" length="8.18" shape="4564.41,1978.75 4566.67,1979.52 4568.34,1979.67 4570.02,1979.80 4572.30,1980.50"/>
        <lane id=":10838152692_0_1" index="1" allow="private emergency authority army vip passenger hov taxi bus coach delivery truck trailer motorcycle evehicle custom1 custom2" speed="22.22" length="8.18" shape="4563.07,1981.65 4565.35,1982.43 4567.04,1982.59 4568.74,1982.73 4571.05,1983.45"/>
    </edge>
    <edge id=":10838152693_0" function="internal">
        <lane id=":10838152693_0_0" index="0" allow="private emergency authority army vip passenger hov taxi bus coach delivery truck trailer motorcycle evehicle custom1 custom2" speed="22.22" length="8.20" shape="3891.10,1627.91 3893.33,1628.79 3895.00,1629.04 3896.67,1629.28 3898.91,1630.14"/>
        <lane id=":10838152693_0_1" index="1" allow="private emergency authority army vip passenger hov taxi bus coach delivery truck trailer motorcycle evehicle custom1 custom2" speed="22.22" length="8.20" shape="3891.10,1627.91 3893.10,1629.24 3894.27,1630.47 3895.44,1631.68 3897.46,1632.99"/>
        <lane id=":10838152693_0_2" index="2" allow="private emergency authority army vip passenger hov taxi bus coach delivery truck trailer motorcycle evehicle custom1 custom2" speed="22.22" length="8.20" shape="3889.62,1630.75 3891.63,1632.08 3892.81,1633.31 3893.98,1634.53 3896.01,1635.84"/>
    </edge>
    <edge id=":10838152694_0" function="internal">
        <lane id=":10838152694_0_0" index="0" allow="private emergency authority army vip passenger hov taxi bus coach delivery truck trailer motorcycle evehicle custom1 custom2" speed="22.22" length="8.20" shape="3883.90,1639.81 3881.66,1638.92 3879.99,1638.66 3878.31,1638.40 3876.08,1637.50"/>
        <lane id=":10838152694_0_1" index="1" allow="private emergency authority army vip passenger hov taxi bus coach delivery truck trailer motorcycle evehicle custom1 custom2" speed="22.22" length="8.20" shape="3885.39,1636.98 3883.15,1636.09 3881.48,1635.83 3879.81,1635.57 3877.58,1634.67"/>
    </edge>
    <edge id=":10840573818_0" function="internal">
        <lane id=":10840573818_0_0" index="0" allow="private emergency authority army vip passenger hov taxi bus coach delivery truck trailer motorcycle evehicle custom1 custom2" speed="39.44" length="8.18" shape="4986.28,2077.61 4983.87,2077.75 4982.24,2078.22 4980.61,2078.68 4978.21,2078.78"/>
        <lane id=":10840573818_0_1" index="1" allow="private emergency authority army vip passenger hov taxi bus coach delivery truck trailer motorcycle evehicle custom1 custom2" speed="39.44" length="8.18" shape="4986.42,2074.41 4984.03,2074.55 4982.41,2075.02 4980.79,2075.48 4978.40,2075.59"/>
    </edge>
    <edge id=":10840573819_0" function="internal">
        <lane id=":10840573819_0_0" index="0" allow="private emergency authority army vip passenger hov taxi bus coach delivery truck trailer motorcycle evehicle custom1 custom2" speed="22.22" length="8.20" shape="1478.02,3926.04 1477.77,3928.41 1478.00,3930.07 1478.23,3931.74 1478.04,3934.12"/>
        <lane id=":10840573819_0_1" index="1" allow="private emergency authority army vip passenger hov taxi bus coach delivery truck trailer motorcycle evehicle custom1 custom2" speed="22.22" length="8.20" shape="1474.89,3925.38 1474.64,3927.77 1474.86,3929.45 1475.09,3931.13 1474.90,3933.53"/>
        <lane id=":10840573819_0_2" index="2" allow="private emergency authority army vip passenger hov taxi bus coach delivery truck trailer motorcycle evehicle custom1 custom2" speed="22.22" length="8.20" shape="1471.76,3924.72 1471.50,3927.13 1471.72,3928.82 1471.95,3930.52 1471.75,3932.94"/>
    </edge>
    <edge id=":11028817791_0" function="internal">
        <lane id=":11028817791_0_0" index="0" allow="private emergency authority army vip passenger hov taxi bus coach delivery truck trailer motorcycle evehicle custom1 custom2" speed="22.22" length="8.15" shape="6225.39,5349.18 6226.09,5351.39 6226.96,5352.79 6227.85,5354.17 6228.65,5356.37"/>
        <lane id=":11028817791_0_1" index="1" allow="private emergency authority army vip passenger hov taxi bus coach delivery truck trailer motorcycle evehicle custom1 custom2" speed="22.22" length="8.15" shape="6222.25,5349.81 6222.97,5352.07 6223.84,5353.49 6224.74,5354.91 6225.55,5357.14"/>
        <lane id=":11028817791_0_2" index="2" allow="private emergency authority army vip passenger hov taxi bus coach delivery truck trailer motorcycle evehicle custom1 custom2" speed="22.22" length="8.15" shape="6219.11,5350.45 6219.84,5352.75 6220.71,5354.20 6221.62,5355.64 6222.44,5357.91"/>
        <lane id=":11028817791_0_3" index="3" allow="private emergency authority army vip passenger hov taxi bus coach delivery truck trailer motorcycle evehicle custom1 custom2" speed="22.22" length="8.15" shape="6215.98,5351.09 6216.71,5353.43 6217.59,5354.90 6218.51,5356.37 6219.34,5358.69"/>
    </edge>
    <edge id=":1103406302_0" function="internal">
        <lane id=":1103406302_0_0" index="0" allow="private emergency authority army vip passenger hov taxi bus coach delivery truck trailer motorcycle evehicle custom1 custom2" speed="23.61" length="0.32" shape="3579.38,1500.73 3579.53,1500.75 3579.62,1500.77 3579.72,1500.79 3579.86,1500.82"/>
        <lane id=":1103406302_0_1" index="1" allow="private emergency authority army vip passenger hov taxi bus coach delivery truck trailer motorcycle evehicle custom1 custom2" speed="23.61" length="0.32" shape="3578.94,1503.90 3578.98,1503.91 3579.02,1503.91 3579.05,1503.92 3579.09,1503.93"/>
    </edge>
    <edge id=":1103406307_0" function="internal">
        <lane id=":1103406307_0_0" index="0" allow="private emergency authority army vip passenger hov taxi bus coach delivery truck trailer motorcycle evehicle custom1 custom2" speed="22.22" length="9.28" shape="3977.15,1694.07 3975.09,1692.24 3973.71,1690.93 3972.22,1689.79 3969.85,1688.42"/>
    </edge>
    <edge id=":1103406307_1" function="internal">
        <lane id=":1103406307_1_0" index="0" allow="private emergency authority army vip passenger hov taxi bus coach delivery truck trailer motorcycle evehicle custom1 custom2" speed="22.22" length="9.56" shape="3979.09,1691.13 3976.68,1689.66 3975.20,1688.38 3973.73,1687.08 3971.33,1685.58"/>
        <lane id=":1103406307_1_1" index="1" allow="private emergency authority army vip passenger hov taxi bus coach delivery truck trailer motorcycle evehicle custom1 custom2" speed="22.22" length="9.56" shape="3980.54,1688.28 3978.14,1686.82 3976.67,1685.53 3975.20,1684.24 3972.81,1682.75"/>
    </edge>
    <edge id=":1103406316_0" function="internal">
        <lane id=":1103406316_0_0" index="0" allow="private emergency authority army vip passenger hov taxi bus coach delivery truck trailer motorcycle evehicle custom1 custom2" speed="22.22" length="11.59" shape="3979.44,1671.12 3989.83,1676.26"/>
    </edge>
    <edge id=":1103406316_1" function="internal">
        <lane id=":1103406316_1_0" index="0" allow="private emergency authority army vip passenger hov taxi bus coach delivery truck trailer motorcycle evehicle custom1 custom2" speed="22.22" length="7.67" shape="3977.99,1673.97 3980.04,1675.07 3981.40,1675.90 3982.71,1676.80 3984.65,1678.09"/>
        <lane id=":1103406316_1_1" index="1" allow="private emergency authority army vip passenger hov taxi bus coach delivery truck trailer motorcycle evehicle custom1 custom2" speed="22.22" length="7.67" shape="3976.54,1676.83 3978.50,1677.87 3979.79,1678.67 3981.05,1679.53 3982.90,1680.77"/>
    </edge>
    <edge id=":1103406460_0" function="internal">
        <lane id=":1103406460_0_0" index="0" allow="private emergency authority army vip passenger hov taxi bus coach delivery truck trailer motorcycle evehicle custom1 custom2" speed="30.83" length="7.43" shape="3580.45,1514.35 3578.38,1514.11 3576.92,1514.36 3575.46,1514.70 3573.34,1514.70"/>
        <lane id=":1103406460_0_1" index="1" allow="private emergency authority army vip passenger hov taxi bus coach delivery truck trailer motorcycle evehicle custom1 custom2" speed="30.83" length="7.43" shape="3580.45,1514.35 3578.41,1513.60 3577.11,1512.77 3575.80,1512.02 3573.72,1511.52"/>
        <lane id=":1103406460_0_2" index="2" allow="private emergency authority army vip passenger hov taxi bus coach delivery truck trailer motorcycle evehicle custom1 custom2" speed="30.83" length="7.43" shape="3581.21,1511.25 3579.05,1510.47 3577.68,1509.62 3576.28,1508.86 3574.09,1508.34"/>
    </edge>
    <edge id=":1103406498_0" function="internal">
        <lane id=":1103406498_0_0" index="0" allow="private emergency authority army vip passenger hov taxi bus coach delivery truck trailer motorcycle evehicle custom1 custom2" speed="25.27" length="20.27" shape="5139.62,2091.70 5135.95,2090.43 5131.81,2088.89 5126.69,2087.52 5120.06,2086.74"/>
    </edge>
    <edge id=":1103406498_1" function="internal">
        <lane id=":1103406498_1_0" index="0" allow="private emergency authority army vip passenger hov taxi bus coach delivery truck trailer motorcycle evehicle custom1 custom2" speed="39.44" length="20.83" shape="5140.27,2088.34 5134.39,2087.18 5130.37,2085.69 5126.29,2084.32 5120.20,2083.54"/>
        <lane id=":1103406498_1_1" index="1" allow="private emergency authority army vip passenger hov taxi bus coach delivery truck trailer motorcycle evehicle custom1 custom2" speed="39.44" length="20.83" shape="5140.63,2085.17 5134.74,2083.99 5130.67,2082.50 5126.51,2081.13 5120.35,2080.34"/>
    </edge>
    <edge id=":1103406500_0" function="internal">
        <lane id=":1103406500_0_0" index="0" allow="private emergency authority army vip passenger hov taxi bus coach delivery truck trailer motorcycle evehicle custom1 custom2" speed="30.83" length="0.29" shape="3981.06,1692.13 3980.83,1692.01"/>
        <lane id=":1103406500_0_1" index="1" allow="private emergency authority army vip passenger hov taxi bus coach delivery truck trailer motorcycle evehicle custom1 custom2" speed="30.83" length="0.29" shape="3982.55,1689.30 3982.28,1689.16"/>
    </edge>
    <edge id=":1105984390_0" function="internal">
        <lane id=":1105984390_0_0" index="0" allow="private emergency authority army vip passenger hov taxi bus coach delivery truck trailer motorcycle evehicle custom1 custom2" speed="16.66" length="7.69" shape="2851.74,7139.58 2849.50,7139.38 2847.96,7139.56 2846.43,7140.02 2844.22,7140.62"/>
    </edge>
    <edge id=":1105984390_1" function="internal">
        <lane id=":1105984390_1_0" index="0" allow="private emergency authority army vip passenger hov taxi bus coach delivery truck trailer motorcycle evehicle custom1 custom2" speed="22.22" length="8.26" shape="2852.23,7136.41 2849.82,7136.31 2848.15,7136.66 2846.48,7137.01 2844.07,7136.93"/>
        <lane id=":1105984390_1_1" index="1" allow="private emergency authority army vip passenger hov taxi bus coach delivery truck trailer motorcycle evehicle custom1 custom2" speed="22.22" length="8.26" shape="2852.71,7133.25 2850.30,7133.15 2848.62,7133.49 2846.95,7133.84 2844.53,7133.76"/>
        <lane id=":1105984390_1_2" index="2" allow="private emergency authority army vip passenger hov taxi bus coach delivery truck trailer motorcycle evehicle custom1 custom2" speed="22.22" length="8.26" shape="2853.20,7130.09 2850.78,7129.99 2849.10,7130.33 2847.42,7130.68 2844.99,7130.59"/>
    </edge>
    <edge id=":1106058825_0" function="internal">
        <lane id=":1106058825_0_0" index="0" allow="private emergency authority army vip passenger hov taxi bus coach delivery truck trailer motorcycle evehicle custom1 custom2" speed="27.78" length="8.04" shape="5680.03,2502.77 5681.99,2504.01 5683.55,2504.52 5685.13,2504.99 5687.18,2506.11"/>
        <lane id=":1106058825_0_1" index="1" allow="private emergency authority army vip passenger hov taxi bus coach delivery truck trailer motorcycle evehicle custom1 custom2" speed="27.78" length="8.04" shape="5678.03,2505.27 5680.04,2506.55 5681.63,2507.08 5683.25,2507.57 5685.34,2508.74"/>
    </edge>
    <edge id=":1110673412_0" function="internal">
        <lane id=":1110673412_0_0" index="0" allow="private emergency authority army vip passenger hov taxi bus coach delivery truck trailer motorcycle evehicle custom1 custom2" speed="22.22" length="0.29" shape="3152.42,7157.45 3152.77,7157.49"/>
        <lane id=":1110673412_0_1" index="1" allow="private emergency authority army vip passenger hov taxi bus coach delivery truck trailer motorcycle evehicle custom1 custom2" speed="22.22" length="0.29" shape="3152.04,7160.62 3152.35,7160.66"/>
        <lane id=":1110673412_0_2" index="2" allow="private emergency authority army vip passenger hov taxi bus coach delivery truck trailer motorcycle evehicle custom1 custom2" speed="22.22" length="0.29" shape="3151.67,7163.80 3151.93,7163.84"/>
        <lane id=":1110673412_0_3" index="3" allow="private emergency authority army vip passenger hov taxi bus coach delivery truck trailer motorcycle evehicle custom1 custom2" speed="22.22" length="0.29" shape="3151.29,7166.98 3151.52,7167.01"/>
    </edge>
    <edge id=":1110673464_0" function="internal">
        <lane id=":1110673464_0_0" index="0" allow="private emergency authority army vip passenger hov taxi bus coach delivery truck trailer motorcycle evehicle custom1 custom2" speed="22.22" length="9.43" shape="3057.29,7168.75 3054.52,7168.49 3052.62,7168.59 3050.70,7168.89 3047.92,7169.25"/>
    </edge>
    <edge id=":1110673464_1" function="internal">
        <lane id=":1110673464_1_0" index="0" allow="private emergency authority army vip passenger hov taxi bus coach delivery truck trailer motorcycle evehicle custom1 custom2" speed="22.22" length="9.76" shape="3057.74,7165.58 3054.86,7165.42 3052.87,7165.66 3050.88,7165.89 3048.01,7165.72"/>
        <lane id=":1110673464_1_1" index="1" allow="private emergency authority army vip passenger hov taxi bus coach delivery truck trailer motorcycle evehicle custom1 custom2" speed="22.22" length="9.76" shape="3058.18,7162.41 3055.31,7162.25 3053.32,7162.49 3051.34,7162.73 3048.47,7162.55"/>
        <lane id=":1110673464_1_2" index="2" allow="private emergency authority army vip passenger hov taxi bus coach delivery truck trailer motorcycle evehicle custom1 custom2" speed="22.22" length="9.76" shape="3058.63,7159.25 3055.76,7159.08 3053.78,7159.32 3051.79,7159.56 3048.92,7159.38"/>
    </edge>
    <edge id=":1110673549_0" function="internal">
        <lane id=":1110673549_0_0" index="0" allow="private emergency authority army vip passenger hov taxi bus coach delivery truck trailer motorcycle evehicle custom1 custom2" speed="22.22" length="11.05" shape="2401.14,7047.80 2404.35,7048.57 2406.70,7048.68 2409.00,7048.49 2412.09,7048.36"/>
    </edge>
    <edge id=":1110673549_1" function="internal">
        <lane id=":1110673549_1_0" index="0" allow="private emergency authority army vip passenger hov taxi bus coach delivery truck trailer motorcycle evehicle custom1 custom2" speed="22.22" length="11.62" shape="2400.19,7050.86 2403.51,7051.52 2405.88,7051.44 2408.26,7051.33 2411.60,7051.89"/>
        <lane id=":1110673549_1_1" index="1" allow="private emergency authority army vip passenger hov taxi bus coach delivery truck trailer motorcycle evehicle custom1 custom2" speed="22.22" length="11.62" shape="2399.25,7053.92 2402.59,7054.59 2404.98,7054.51 2407.38,7054.40 2410.75,7054.98"/>
        <lane id=":1110673549_1_2" index="2" allow="private emergency authority army vip passenger hov taxi bus coach delivery truck trailer motorcycle evehicle custom1 custom2" speed="22.22" length="11.62" shape="2398.30,7056.98 2401.67,7057.65 2404.08,7057.58 2406.50,7057.48 2409.90,7058.06"/>
    </edge>
    <edge id=":1110673561_0" function="internal">
        <lane id=":1110673561_0_0" index="0" allow="private emergency authority army vip passenger hov taxi bus coach delivery truck trailer motorcycle evehicle custom1 custom2" speed="22.22" length="11.66" shape="3111.71,7150.17 3114.59,7151.41 3116.79,7152.45 3119.20,7153.29 3122.69,7153.91"/>
    </edge>
    <edge id=":1110673561_1" function="internal">
        <lane id=":1110673561_1_0" index="0" allow="private emergency authority army vip passenger hov taxi bus coach delivery truck trailer motorcycle evehicle custom1 custom2" speed="22.22" length="12.11" shape="3110.84,7153.58 3114.30,7154.37 3116.57,7155.38 3118.84,7156.36 3122.31,7157.09"/>
        <lane id=":1110673561_1_1" index="1" allow="private emergency authority army vip passenger hov taxi bus coach delivery truck trailer motorcycle evehicle custom1 custom2" speed="22.22" length="12.11" shape="3110.40,7156.75 3113.88,7157.54 3116.16,7158.55 3118.45,7159.54 3121.93,7160.27"/>
        <lane id=":1110673561_1_2" index="2" allow="private emergency authority army vip passenger hov taxi bus coach delivery truck trailer motorcycle evehicle custom1 custom2" speed="22.22" length="12.11" shape="3109.97,7159.92 3113.46,7160.72 3115.76,7161.72 3118.05,7162.71 3121.56,7163.45"/>
    </edge>
    <edge id=":1110673672_0" function="internal">
        <lane id=":1110673672_0_0" index="0" allow="private emergency authority army vip passenger hov taxi bus coach delivery truck trailer motorcycle evehicle custom1 custom2" speed="39.44" length="7.67" shape="3071.08,1425.34 3068.83,1424.87 3067.20,1424.89 3065.59,1424.83 3063.41,1424.16"/>
        <lane id=":1110673672_0_1" index="1" allow="private emergency authority army vip passenger hov taxi bus coach delivery truck trailer motorcycle evehicle custom1 custom2" speed="39.44" length="7.67" shape="3072.06,1422.30 3069.89,1421.86 3068.33,1421.89 3066.78,1421.86 3064.68,1421.22"/>
    </edge>
    <edge id=":1110673725_0" function="internal">
        <lane id=":1110673725_0_0" index="0" allow="private emergency authority army vip passenger hov taxi bus coach delivery truck trailer motorcycle evehicle custom1 custom2" speed="16.67" length="7.23" shape="3280.56,1478.64 3278.43,1478.61 3276.95,1478.93 3275.49,1479.16 3273.41,1478.87"/>
    </edge>
    <edge id=":1112072631_0" function="internal">
        <lane id=":1112072631_0_0" index="0" allow="private emergency authority army vip passenger hov taxi bus coach delivery truck trailer motorcycle evehicle custom1 custom2" speed="17.94" length="14.28" shape="5459.11,2283.82 5458.29,2280.51 5457.48,2277.51 5456.01,2274.50 5453.16,2271.14"/>
    </edge>
    <edge id=":1112072631_1" function="internal">
        <lane id=":1112072631_1_0" index="0" allow="private emergency authority army vip passenger hov taxi bus coach delivery truck trailer motorcycle evehicle custom1 custom2" speed="39.44" length="15.17" shape="5462.33,2281.90 5460.08,2278.12 5459.15,2275.11 5458.07,2272.23 5455.39,2268.84"/>
        <lane id=":1112072631_1_1" index="1" allow="private emergency authority army vip passenger hov taxi bus coach delivery truck trailer motorcycle evehicle custom1 custom2" speed="39.44" length="15.17" shape="5464.86,2279.94 5462.53,2276.06 5461.53,2272.98 5460.40,2270.03 5457.62,2266.54"/>
    </edge>
    <edge id=":1112072997_0" function="internal">
        <lane id=":1112072997_0_0" index="0" allow="private emergency authority army vip passenger hov taxi bus coach delivery truck trailer motorcycle evehicle custom1 custom2" speed="25.00" length="5.17" shape="5431.36,2214.59 5432.48,2215.63 5433.25,2216.35 5434.07,2217.01 5435.32,2217.89"/>
    </edge>
    <edge id=":1112072997_1" function="internal">
        <lane id=":1112072997_1_0" index="0" allow="private emergency authority army vip passenger hov taxi bus coach delivery truck trailer motorcycle evehicle custom1 custom2" speed="27.78" length="4.24" shape="5429.20,2216.95 5432.27,2220.05"/>
        <lane id=":1112072997_1_1" index="1" allow="private emergency authority army vip passenger hov taxi bus coach delivery truck trailer motorcycle evehicle custom1 custom2" speed="27.78" length="4.24" shape="5427.04,2219.30 5429.93,2222.23"/>
    </edge>
    <edge id=":111464592_0" function="internal">
        <lane id=":111464592_0_0" index="0" allow="private emergency authority army vip passenger hov taxi bus coach delivery truck trailer motorcycle evehicle custom1 custom2" speed="22.22" length="3.62" shape="1027.49,4935.68 1027.84,4934.66 1028.05,4933.96 1028.21,4933.24 1028.42,4932.19"/>
    </edge>
    <edge id=":111464592_1" function="internal">
        <lane id=":111464592_1_0" index="0" allow="private emergency authority army vip passenger hov taxi bus coach delivery truck trailer motorcycle evehicle custom1 custom2" speed="22.22" length="4.88" shape="1030.51,4936.74 1030.98,4935.35 1031.29,4934.39 1031.65,4933.45 1032.25,4932.11"/>
        <lane id=":111464592_1_1" index="1" allow="private emergency authority army vip passenger hov taxi bus coach delivery truck trailer motorcycle evehicle custom1 custom2" speed="22.22" length="4.88" shape="1033.52,4937.81 1033.99,4936.43 1034.30,4935.49 1034.66,4934.56 1035.25,4933.24"/>
        <lane id=":111464592_1_2" index="2" allow="private emergency authority army vip passenger hov taxi bus coach delivery truck trailer motorcycle evehicle custom1 custom2" speed="22.22" length="4.88" shape="1036.54,4938.87 1037.00,4937.52 1037.31,4936.59 1037.67,4935.68 1038.25,4934.38"/>
    </edge>
    <edge id=":1131291609_0" function="internal">
        <lane id=":1131291609_0_0" index="0" allow="private emergency authority army vip passenger hov taxi bus coach delivery truck trailer motorcycle evehicle custom1 custom2" speed="22.22" length="14.27" shape="4624.54,1999.06 4627.29,2000.99 4629.64,2002.95 4632.44,2004.85 4636.56,2006.58"/>
    </edge>
    <edge id=":1131291609_1" function="internal">
        <lane id=":1131291609_1_0" index="0" allow="private emergency authority army vip passenger hov taxi bus coach delivery truck trailer motorcycle evehicle custom1 custom2" speed="22.22" length="15.21" shape="4622.74,2001.92 4626.65,2004.04 4629.07,2006.01 4631.53,2007.87 4635.58,2009.63"/>
        <lane id=":1131291609_1_1" index="1" allow="private emergency authority army vip passenger hov taxi bus coach delivery truck trailer motorcycle evehicle custom1 custom2" speed="22.22" length="15.21" shape="4621.49,2004.87 4625.48,2007.02 4627.95,2009.01 4630.47,2010.89 4634.60,2012.68"/>
    </edge>
    <edge id=":1145510972_0" function="internal">
        <lane id=":1145510972_0_0" index="0" allow="private emergency authority army vip passenger hov taxi bus coach delivery truck trailer motorcycle evehicle custom1 custom2" speed="23.61" length="14.77" shape="1816.82,2022.05 1817.34,2026.69 1818.23,2030.12 1819.37,2033.05 1820.62,2036.22"/>
    </edge>
    <edge id=":1145510972_1" function="internal">
        <lane id=":1145510972_1_0" index="0" allow="private emergency authority army vip passenger hov taxi bus coach delivery truck trailer motorcycle evehicle custom1 custom2" speed="25.00" length="14.68" shape="1816.82,2022.05 1816.88,2026.45 1816.63,2029.47 1816.29,2032.48 1816.09,2036.89"/>
        <lane id=":1145510972_1_1" index="1" allow="private emergency authority army vip passenger hov taxi bus coach delivery truck trailer motorcycle evehicle custom1 custom2" speed="25.00" length="14.68" shape="1813.63,2022.22 1813.68,2026.56 1813.43,2029.53 1813.09,2032.51 1812.89,2036.86"/>
        <lane id=":1145510972_1_2" index="2" allow="private emergency authority army vip passenger hov taxi bus coach delivery truck trailer motorcycle evehicle custom1 custom2" speed="25.00" length="14.68" shape="1810.43,2022.38 1810.49,2026.67 1810.23,2029.60 1809.89,2032.53 1809.69,2036.82"/>
    </edge>
    <edge id=":1145511528_0" function="internal">
        <lane id=":1145511528_0_0" index="0" allow="private emergency authority army vip passenger hov taxi bus coach delivery truck trailer motorcycle evehicle custom1 custom2" speed="18.33" length="6.09" shape="1496.31,3862.26 1495.29,3863.76 1494.58,3864.80 1494.06,3865.92 1493.61,3867.64"/>
    </edge>
    <edge id=":1145511528_1" function="internal">
        <lane id=":1145511528_1_0" index="0" allow="private emergency authority army vip passenger hov taxi bus coach delivery truck trailer motorcycle evehicle custom1 custom2" speed="22.22" length="6.46" shape="1492.84,3860.90 1492.32,3862.76 1491.69,3863.95 1491.05,3865.14 1490.47,3866.98"/>
        <lane id=":1145511528_1_1" index="1" allow="private emergency authority army vip passenger hov taxi bus coach delivery truck trailer motorcycle evehicle custom1 custom2" speed="22.22" length="6.46" shape="1489.69,3860.34 1489.18,3862.17 1488.55,3863.34 1487.91,3864.51 1487.34,3866.32"/>
        <lane id=":1145511528_1_2" index="2" allow="private emergency authority army vip passenger hov taxi bus coach delivery truck trailer motorcycle evehicle custom1 custom2" speed="22.22" length="6.46" shape="1486.54,3859.78 1486.03,3861.58 1485.41,3862.73 1484.77,3863.88 1484.21,3865.66"/>
    </edge>
    <edge id=":1145512768_0" function="internal">
        <lane id=":1145512768_0_0" index="0" allow="private emergency authority army vip passenger hov taxi bus coach delivery truck trailer motorcycle evehicle custom1 custom2" speed="22.22" length="24.29" shape="1533.08,3670.87 1531.13,3678.80 1530.27,3685.34 1529.98,3690.64 1529.74,3694.86"/>
    </edge>
    <edge id=":1145512768_1" function="internal">
        <lane id=":1145512768_1_0" index="0" allow="private emergency authority army vip passenger hov taxi bus coach delivery truck trailer motorcycle evehicle custom1 custom2" speed="22.22" length="24.27" shape="1533.08,3670.87 1526.06,3694.11"/>
        <lane id=":1145512768_1_1" index="1" allow="private emergency authority army vip passenger hov taxi bus coach delivery truck trailer motorcycle evehicle custom1 custom2" speed="22.22" length="24.27" shape="1530.02,3669.93 1523.00,3693.16"/>
        <lane id=":1145512768_1_2" index="2" allow="private emergency authority army vip passenger hov taxi bus coach delivery truck trailer motorcycle evehicle custom1 custom2" speed="22.22" length="24.27" shape="1526.97,3668.98 1519.93,3692.21"/>
    </edge>
    <edge id=":1146570357_0" function="internal">
        <lane id=":1146570357_0_0" index="0" allow="private emergency authority army vip passenger hov taxi bus coach delivery truck trailer motorcycle evehicle custom1 custom2" speed="25.00" length="8.11" shape="1791.30,1876.96 1791.00,1874.56 1790.43,1872.96 1789.88,1871.35 1789.66,1868.95"/>
        <lane id=":1146570357_0_1" index="1" allow="private emergency authority army vip passenger hov taxi bus coach delivery truck trailer motorcycle evehicle custom1 custom2" speed="25.00" length="8.11" shape="1794.50,1876.89 1794.20,1874.52 1793.63,1872.94 1793.08,1871.36 1792.86,1869.00"/>
        <lane id=":1146570357_0_2" index="2" allow="private emergency authority army vip passenger hov taxi bus coach delivery truck trailer motorcycle evehicle custom1 custom2" speed="25.00" length="8.11" shape="1797.70,1876.81 1797.40,1874.48 1796.83,1872.92 1796.28,1871.37 1796.06,1869.04"/>