<?xml version="1.0" encoding="UTF-8"?>

<!-- generated on 2024-02-14 17:31:54 by Eclipse SUMO netconvert Version 1.19.0
-->

<configuration xmlns:xsi="http://www.w3.org/2001/XMLSchema-instance" xsi:noNamespaceSchemaLocation="http://sumo.dlr.de/xsd/netconvertConfiguration.xsd">

    <input>
        <osm-files value="../osm/map_1.osm,../osm/map_2.osm,../osm/map_3.osm,../osm/map_4.osm,../osm/map_5.osm,../osm/map_6.osm,../osm/map_7.osm,../osm/map_8.osm"/>
    </input>

    <output>
        <output-file value="../networks/base_2024-02-14-17-31-53.net.xml"/>
        <output.street-names value="true"/>
        <output.original-names value="true"/>
    </output>

    <processing>
        <geometry.remove value="true"/>
    </processing>

    <ramp_guessing>
        <ramps.guess value="true"/>
    </ramp_guessing>

    <edge_removal>
        <remove-edges.isolated value="true"/>
    </edge_removal>

    <junctions>
        <junctions.join value="true"/>
    </junctions>

    <random_number>
        <random value="false"/>
        <seed value="42"/>
    </random_number>

</configuration>
