<?xml version="1.0" encoding="UTF-8"?>

<!-- generated on 2024-02-14 17:13:24 by Eclipse SUMO netconvert Version 1.19.0
-->

<configuration xmlns:xsi="http://www.w3.org/2001/XMLSchema-instance" xsi:noNamespaceSchemaLocation="http://sumo.dlr.de/xsd/netconvertConfiguration.xsd">

    <input>
        <osm-files value="map_1.osm,map_2.osm,map_3.osm,map_4.osm,map_5.osm,map_6.osm,map_7.osm,map_8.osm"/>
    </input>

    <output>
        <output.street-names value="true"/>
        <output.original-names value="true"/>
    </output>

    <projection></projection>

    <processing>
        <geometry.remove value="true"/>
    </processing>

    <ramp_guessing>
        <ramps.guess value="true"/>
    </ramp_guessing>

    <edge_removal>
        <remove-edges.isolated value="true"/>
    </edge_removal>
<unregulated_nodes></unregulated_nodes>

    <junctions>
        <junctions.join value="true"/>
    </junctions>

    <pedestrian></pedestrian>
    <bicycle></bicycle>
    <railway></railway>
    <formats></formats>
    <report></report>

    <random_number>
        <random value="false"/>
        <seed value="42"/>
    </random_number>

</configuration>
