<?xml version="1.0" encoding="UTF-8"?>

<!-- generated on 2024-02-14 17:32:46 by Eclipse SUMO netconvert Version 1.19.0
-->

<configuration xmlns:xsi="http://www.w3.org/2001/XMLSchema-instance" xsi:noNamespaceSchemaLocation="http://sumo.dlr.de/xsd/netconvertConfiguration.xsd">

    <input>
        <sumo-net-file value="../networks/base.net.xml"/>
    </input>

    <output>
        <output-file value="../networks/filter_by_edge_2024-02-14-17-32-34.net.xml"/>
        <output.street-names value="true"/>
        <output.original-names value="true"/>
    </output>

    <edge_removal>
        <keep-edges.input-file value="edges_2024-02-14-17-32-34.txt"/>
        <keep-edges.components value="1"/>
    </edge_removal>

    <random_number>
        <random value="false"/>
        <seed value="42"/>
    </random_number>

</configuration>
